 13/05/91 CYME INTERNATIONAL    100.0 1991 S IEEE 300-BUS TEST SYSTEM
BUS DATA FOLLOWS                   3120 ITEMS
   1 bus-1   220   1  1  0 1.0000   0.00     0.00      0.00    0.00    0.00  220.00 1.0000    0.00    0.00  0.0000  0.0000    0
   2 bus-2   220   1  1  0 1.0000   0.00     0.00      0.00    0.00    0.00  220.00 1.0000    0.00    0.00  0.0000  0.0000    0
   3 bus-3   220   1  1  0 1.0000   0.00     0.00      0.00    0.00    0.00  220.00 1.0000    0.00    0.00  0.0000  0.0000    0
   4 bus-4   220   1  1  0 1.0000   0.00     0.00      0.00    0.00    0.00  220.00 1.0000    0.00    0.00  0.0000  0.0000    0
   5 bus-5   220   1  1  0 1.0000   0.00     0.00      0.00    0.00    0.00  220.00 1.0000    0.00    0.00  0.0000  0.0000    0
   6 bus-6   220   1  1  0 1.0000   0.00     0.00      0.00    0.00    0.00  220.00 1.0000    0.00    0.00  0.0000  0.0000    0
   7 bus-7   220   1  1  0 1.0000   0.00     0.00      0.00    0.00    0.00  220.00 1.0000    0.00    0.00  0.0000  0.0000    0
   8 bus-8   220   1  1  0 1.0000   0.00     0.00      0.00    0.00    0.00  220.00 1.0000    0.00    0.00  0.0000  0.0000    0
   9 bus-9   220   1  1  0 1.0000   0.00     0.00      0.00    0.00    0.00  220.00 1.0000    0.00    0.00  0.0000  0.0000    0
  10 bus-10  220   1  1  0 1.0000   0.00     0.00      0.00    0.00    0.00  220.00 1.0000    0.00    0.00  0.0000  0.0000    0
  11 bus-11  400   1  1  0 1.0000   0.00     0.00      0.00    0.00    0.00  400.00 1.0000    0.00    0.00  0.0000  0.0000    0
  12 bus-12  400   1  1  0 1.0000   0.00     0.00      0.00    0.00    0.00  400.00 1.0000    0.00    0.00  0.0000  0.0000    0
  13 bus-13  400   1  1  0 1.0000   0.00     0.00      0.00    0.00    0.00  400.00 1.0000    0.00    0.00  0.0000  0.0000    0
  14 bus-14  220   1  1  0 1.0000   0.00     0.00      0.00    0.00    0.00  220.00 1.0000    0.00    0.00  0.0000  0.0000    0
  15 bus-15  220   1  1  0 1.0000   0.00     0.00      0.00    0.00    0.00  220.00 1.0000    0.00    0.00  0.0000  0.0000    0
  16 bus-16  220   1  1  0 1.0000   0.00     0.00      0.00    0.00    0.00  220.00 1.0000    0.00    0.00  0.0000  0.0000    0
  17 bus-17  220   1  1  0 1.0000   0.00     0.00      0.00    0.00    0.00  220.00 1.0000    0.00    0.00  0.0000  0.0000    0
  18 bus-18  400   1  1  0 1.0000   0.00     0.00      0.00    0.00    0.00  400.00 1.0000    0.00    0.00  0.0000  0.0000    0
  19 bus-19  400   1  1  0 1.0000   0.00     0.00      0.00    0.00    0.00  400.00 1.0000    0.00    0.00  0.0000  0.0000    0
  20 bus-20  400   1  1  0 1.0000   0.00     0.00      0.00    0.00    0.00  400.00 1.0000    0.00    0.00  0.0000  0.0000    0
  21 bus-21  400   1  1  0 1.0000   0.00     0.00      0.00    0.00    0.00  400.00 1.0000    0.00    0.00  0.0000  0.0000    0
  22 bus-22  220   1  1  2 1.0000   0.00    10.00     20.00  180.00   22.85  220.00 1.0682  162.00  -61.00  0.0000  0.0000    0
  23 bus-23  220   1  1  2 1.0000   0.00    10.00     20.00  180.00   35.93  220.00 1.0682  140.00  -25.00  0.0000  0.0000    0
  24 bus-24  220   1  1  0 1.0000   0.00     0.00      0.00    0.00    0.00  220.00 1.0000    0.00    0.00  0.0000  0.0000    0
  25 bus-25  220   1  1  0 1.0000   0.00     0.00      0.00    0.00    0.00  220.00 1.0000    0.00    0.00  0.0000  0.0000    0
  26 bus-26  220   1  1  0 1.0000   0.00     0.00      0.00    0.00    0.00  220.00 1.0000    0.00    0.00  0.0000  0.0000    0
  27 bus-27  220   1  1  0 1.0000   0.00     0.00      0.00    0.00    0.00  220.00 1.0000    0.00    0.00  0.0000  0.0000    0
  28 bus-28  220   1  1  0 1.0000   0.00     0.00      0.00    0.00    0.00  220.00 1.0000    0.00    0.00  0.0000  0.0000    0
  29 bus-29  220   1  1  0 1.0000   0.00     0.00      0.00    0.00    0.00  220.00 1.0000    0.00    0.00  0.0000  0.0000    0
  30 bus-30  220   1  1  0 1.0000   0.00     0.00      0.00    0.00    0.00  220.00 1.0000    0.00    0.00  0.0000  0.0000    0
  31 bus-31  220   1  1  0 1.0000   0.00     0.00      0.00    0.00    0.00  220.00 1.0000    0.00    0.00  0.0000  0.0000    0
  32 bus-32  400   1  1  0 1.0000   0.00     0.00      0.00    0.00    0.00  400.00 1.0000    0.00    0.00  0.0000  0.0000    0
  33 bus-33  400   1  1  0 1.0000   0.00     0.00      0.00    0.00    0.00  400.00 1.0000    0.00    0.00  0.0000  0.0000    0
  34 bus-34  400   1  1  0 1.0000   0.00     0.00      0.00    0.00    0.00  400.00 1.0000    0.00    0.00  0.0000  0.0000    0
  35 bus-35  220   1  1  2 1.0000   0.00    32.16     52.07  345.00  147.04  220.00 1.0955  570.00  -57.00  0.0000  0.0000    0
  36 bus-36  220   1  1  2 1.0000   0.00    46.36     92.07  690.00  170.60  220.00 1.0955  380.00  -38.00  0.0000  0.0000    0
  37 bus-37  400   1  1  3 1.0000   0.00    60.00    120.00 1050.00  104.76  400.00 1.0400  570.00  -57.00  0.0000  0.0000    0
  38 bus-38  400   1  1  2 1.0000   0.00    60.00    120.00 1050.00   89.52  400.00 1.0400  570.00  -57.00  0.0000  0.0000    0
  39 bus-39  220   1  1  0 1.0000   0.00     0.00      0.00    0.00    0.00  220.00 1.0000    0.00    0.00  0.0000  0.0000    0
  40 bus-40  220   1  1  0 1.0000   0.00     0.00      0.00    0.00    0.00  220.00 1.0000    0.00    0.00  0.0000  0.0000    0
  41 bus-41  400   1  1  0 1.0000   0.00     0.00      0.00    0.00    0.00  400.00 1.0000    0.00    0.00  0.0000  0.0000    0
  42 bus-42  400   1  1  0 1.0000   0.00     0.00      0.00    0.00    0.00  400.00 1.0000    0.00    0.00  0.0000  0.0000    0
  43 bus-43  220   1  1  0 1.0000   0.00     0.00      0.00    0.00    0.00  220.00 1.0000    0.00    0.00  0.0000  0.0000    0
  44 bus-44  400   1  1  0 1.0000   0.00     0.00      0.00    0.00    0.00  400.00 1.0000    0.00    0.00  0.0000  0.0000    0
  45 bus-45  220   1  1  0 1.0000   0.00     0.00      0.00    0.00    0.00  220.00 1.0000    0.00    0.00  0.0000  0.0000    0
  46 bus-46  220   1  1  0 1.0000   0.00     0.00      0.00    0.00    0.00  220.00 1.0000    0.00    0.00  0.0000  0.0000    0
  47 bus-47  220   1  2  0 1.0000   0.00     0.00      0.00    0.00    0.00  220.00 1.0000    0.00    0.00  0.0000  0.0000    0
  48 bus-48  220   1  2  0 1.0000   0.00     0.00      0.00    0.00    0.00  220.00 1.0000    0.00    0.00  0.0000  0.0000    0
  49 bus-49  220   1  2  0 1.0000   0.00     0.00      0.00    0.00    0.00  220.00 1.0000    0.00    0.00  0.0000  0.0000    0
  50 bus-50  220   1  2  0 1.0000   0.00     0.00      0.00    0.00    0.00  220.00 1.0000    0.00    0.00  0.0000  0.0000    0
  51 bus-51  220   1  2  0 1.0000   0.00     0.00      0.00    0.00    0.00  220.00 1.0000    0.00    0.00  0.0000  0.0000    0
  52 bus-52  220   1  2  0 1.0000   0.00     3.97      1.00    0.00    0.00  220.00 1.0000    0.00    0.00  0.0000  0.0000    0
  53 bus-53  220   1  2  0 1.0000   0.00     0.00      0.00    0.00    0.00  220.00 1.0000    0.00    0.00  0.0000  0.0000    0
  54 bus-54  400   1  2  0 1.0000   0.00     0.00      0.00    0.00    0.00  400.00 1.0000    0.00    0.00  0.0000  0.0000    0
  55 bus-55  220   1  2  2 1.0000   0.00    13.00     30.00  205.00   86.71  220.00 1.0909  304.00  -66.00  0.0000  0.0000    0
  56 bus-56  220   1  2  2 1.0000   0.00    39.35     90.07  205.00   87.71  220.00 1.0909  298.00  -66.00  0.0000  0.0000    0
  57 bus-57  220   1  2  2 1.0000   0.00    26.00     60.00  410.00  171.20  220.00 1.0909  298.00  -66.00  0.0000  0.0000    0
  58 bus-58  400   1  2  2 1.0000   0.00    26.00     50.00  330.00  195.71  400.00 1.0350  363.00  -47.00  0.0000  0.0000    0
  59 bus-59  400   1  2  2 1.0000   0.00    26.00     50.00  330.00  122.87  400.00 1.0350  348.00 -100.00  0.0000  0.0000    0
  60 bus-60  220   1  2  0 1.0000   0.00     0.00      0.00    0.00    0.00  220.00 1.0000    0.00    0.00  0.0000  0.0000    0
  61 bus-61  400   1  2  0 1.0000   0.00     0.00      0.00    0.00    0.00  400.00 1.0000    0.00    0.00  0.0000  0.0000    0
  62 bus-62  400   1  2  0 1.0000   0.00     0.00      0.00    0.00    0.00  400.00 1.0000    0.00    0.00  0.0000  0.0000    0
  63 bus-63  400   1  2  0 1.0000   0.00     0.00      0.00    0.00    0.00  400.00 1.0000    0.00    0.00  0.0000  0.0000    0
  64 bus-64  220   1  2  0 1.0000   0.00     0.00      0.00    0.00    0.00  220.00 1.0000    0.00    0.00  0.0000  0.0000    0
  65 bus-65  220   1  2  0 1.0000   0.00     0.00      0.00    0.00    0.00  220.00 1.0000    0.00    0.00  0.0000  0.0000    0
  66 bus-66  400   1  2  0 1.0000   0.00     0.00      0.00    0.00    0.00  400.00 1.0000    0.00    0.00  0.0000  0.0000    0
  67 bus-67  400   1  2  0 1.0000   0.00     0.00      0.00    0.00    0.00  400.00 1.0000    0.00    0.00  0.0000  0.0000    0
  68 bus-68  220   1  2  2 1.0000   0.00    13.00     30.00  210.00  -10.62  220.00 1.0864  120.00  -14.00  0.0000  0.0000    0
  69 bus-69  220   1  2  2 1.0000   0.00    26.00     60.00  420.00  -11.88  220.00 1.0864  219.00  -24.00  0.0000  0.0000    0
  70 bus-70  400   1  2  2 1.0000   0.00     0.00      2.25    0.00    0.00  400.00 1.0325  240.00  -28.00  0.0000  0.0000    0
  71 bus-71  400   1  2  2 1.0000   0.00    26.00     60.00  440.00  -15.62  400.00 1.0325  219.00  -24.00  0.0000  0.0000    0
  72 bus-72  220   1  2  0 1.0000   0.00     0.00      0.00    0.00    0.00  220.00 1.0000    0.00    0.00  0.0000  0.0000    0
  73 bus-73  220   1  2  0 1.0000   0.00     0.00      0.00    0.00    0.00  220.00 1.0000    0.00    0.00  0.0000  0.0000    0
  74 bus-74  220   1  2  0 1.0000   0.00     0.00      0.00    0.00    0.00  220.00 1.0000    0.00    0.00  0.0000  0.0000    0
  75 bus-75  220   1  2  0 1.0000   0.00     0.00      0.00    0.00    0.00  220.00 1.0000    0.00    0.00  0.0000  0.0000    0
  76 bus-76  220   1  2  0 1.0000   0.00     0.00      0.00    0.00    0.00  220.00 1.0000    0.00    0.00  0.0000  0.0000    0
  77 bus-77  220   1  2  0 1.0000   0.00     0.00      0.00    0.00    0.00  220.00 1.0000    0.00    0.00  0.0000  0.0000    0
  78 bus-78  400   1  2  0 1.0000   0.00     0.00      0.00    0.00    0.00  400.00 1.0000    0.00    0.00  0.0000  0.0000    0
  79 bus-79  400   1  2  0 1.0000   0.00     0.00      0.00    0.00    0.00  400.00 1.0000    0.00    0.00  0.0000  0.0000    0
  80 bus-80  220   1  2  0 1.0000   0.00     0.00      0.00    0.00    0.00  220.00 1.0000    0.00    0.00  0.0000  0.0000    0
  81 bus-81  220   1  2  0 1.0000   0.00     0.00      0.00    0.00    0.00  220.00 1.0000    0.00    0.00  0.0000  0.0000    0
  82 bus-82  220   1  2  0 1.0000   0.00     0.00      0.00    0.00    0.00  220.00 1.0000    0.00    0.00  0.0000  0.0000    0
  83 bus-83  220   1  3  0 1.0000   0.00     0.00      0.00    0.00    0.00  220.00 1.0000    0.00    0.00  0.0000  0.0000    0
  84 bus-84  220   1  3  0 1.0000   0.00     6.41      2.01    0.00    0.00  220.00 1.0000    0.00    0.00  0.0000  0.0000    0
  85 bus-85  220   1  3  0 1.0000   0.00    13.89      5.02    0.00    0.00  220.00 1.0000    0.00    0.00  0.0000  0.0000    0
  86 bus-86  220   1  3  0 1.0000   0.00     0.00      0.00    0.00    0.00  220.00 1.0000    0.00    0.00  0.0000  0.0000    0
  87 bus-87  220   1  3  0 1.0000   0.00     0.00      0.00    0.00    0.00  220.00 1.0000    0.00    0.00  0.0000  0.0000    0
  88 bus-88  220   1  3  0 1.0000   0.00     0.00      0.00    0.00    0.00  220.00 1.0000    0.00    0.00  0.0000  0.0000    0
  89 bus-89  220   1  3  0 1.0000   0.00     0.00      0.00    0.00    0.00  220.00 1.0000    0.00    0.00  0.0000  0.0000    0
  90 bus-90  220   1  3  0 1.0000   0.00     0.00      0.00    0.00    0.00  220.00 1.0000    0.00    0.00  0.0000  0.0000    0
  91 bus-91  220   1  3  0 1.0000   0.00     0.00      0.00    0.00    0.00  220.00 1.0000    0.00    0.00  0.0000  0.0000    0
  92 bus-92  220   1  3  2 1.0000   0.00    28.00     70.00  430.00  265.35  220.00 1.0818  265.00  -13.00  0.0000  0.0000    0
  93 bus-93  220   1  3  2 1.0000   0.00    28.00     68.00  430.00  262.94  220.00 1.0818  393.00  -18.00  0.0000  0.0000    0
  94 bus-94  220   1  3  0 1.0000   0.00     2.78      1.91    0.00    0.00  220.00 1.0000    0.00    0.00  0.0000  0.0000    0
  95 bus-95  220   1  3  0 1.0000   0.00     0.00      0.00    0.00    0.00  220.00 1.0000    0.00    0.00  0.0000  0.0000    0
  96 bus-96  400   1  3  2 1.0000   0.00    32.00    142.00  740.00   72.70  400.00 1.0375  425.00  -61.00  0.0000  0.0000    0
  97 bus-97  400   1  3  0 1.0000   0.00     0.00      0.00    0.00    0.00  400.00 1.0000    0.00    0.00  0.0000  0.0000    0
  98 bus-98  220   1  3  0 1.0000   0.00     0.00      0.00    0.00    0.00  220.00 1.0000    0.00    0.00  0.0000  0.0000    0
  99 bus-99  220   1  3  0 1.0000   0.00     0.00      0.00    0.00    0.00  220.00 1.0000    0.00    0.00  0.0000  0.0000    0
 100 bus-100 220   1  3  0 1.0000   0.00     0.00      0.00    0.00    0.00  220.00 1.0000    0.00    0.00  0.0000  0.0000    0
 101 bus-101 220   1  3  0 1.0000   0.00    38.80     -2.70    0.00    0.00  220.00 1.0000    0.00    0.00  0.0000  0.0000    0
 102 bus-102 220   1  3  0 1.0000   0.00     0.00      0.00    0.00    0.00  220.00 1.0000    0.00    0.00  0.0000  0.0000    0
 103 bus-103 220   1  3  0 1.0000   0.00     0.00      0.00    0.00    0.00  220.00 1.0000    0.00    0.00  0.0000  0.0000    0
 104 bus-104 220   1  3  0 1.0000   0.00     0.00      0.00    0.00    0.00  220.00 1.0000    0.00    0.00  0.0000  0.0000    0
 105 bus-105 220   1  3  0 1.0000   0.00     0.00      0.00    0.00    0.00  220.00 1.0000    0.00    0.00  0.0000  0.0000    0
 106 bus-106 220   1  3  0 1.0000   0.00     0.00      0.00    0.00    0.00  220.00 1.0000    0.00    0.00  0.0000  0.0000    0
 107 bus-107 400   1  3  0 1.0000   0.00     0.00      0.00    0.00    0.00  400.00 1.0000    0.00    0.00  0.0000  0.0000    0
 108 bus-108 400   1  3  0 1.0000   0.00     0.00      0.00    0.00    0.00  400.00 1.0000    0.00    0.00  0.0000  0.0000    0
 109 bus-109 220   1  3  0 1.0000   0.00     0.00      0.00    0.00    0.00  220.00 1.0000    0.00    0.00  0.0000  0.0000    0
 110 bus-110 220   1  3  0 1.0000   0.00     0.00      0.00    0.00    0.00  220.00 1.0000    0.00    0.00  0.0000  0.0000    0
 111 bus-111 220   1  3  0 1.0000   0.00     0.00      0.00    0.00    0.00  220.00 1.0000    0.00    0.00  0.0000  0.0000    0
 112 bus-112 220   1  3  0 1.0000   0.00     0.00      0.00    0.00    0.00  220.00 1.0000    0.00    0.00  0.0000  0.0000    0
 113 bus-113 220   1  3  2 1.0000   0.00    38.41     12.71   19.00    1.09  220.00 1.0773    0.00    0.00  0.0000  0.0000    0
 114 bus-114 220   1  3  0 1.0000   0.00     0.00      0.00    0.00    0.00  220.00 1.0000    0.00    0.00  0.0000  0.0000    0
 115 bus-115 220   1  3  0 1.0000   0.00     0.00      0.00    0.00    0.00  220.00 1.0000    0.00    0.00  0.0000  0.0000    0
 116 bus-116 220   1  3  0 1.0000   0.00     0.00      0.00    0.00    0.00  220.00 1.0000    0.00    0.00  0.0000  0.0000    0
 117 bus-117 220   1  3  0 1.0000   0.00     0.00      0.00    0.00    0.00  220.00 1.0000    0.00    0.00  0.0000  0.0000    0
 118 bus-118 220   1  3  0 1.0000   0.00     0.00      0.00    0.00    0.00  220.00 1.0000    0.00    0.00  0.0000  0.0000    0
 119 bus-119 220   1  3  2 1.0000   0.00    10.00     44.00  215.00   89.14  220.00 1.0818  120.00  -10.00  0.0000  0.0000    0
 120 bus-120 220   1  3  2 1.0000   0.00    10.00     44.00  215.00   92.04  220.00 1.0818  120.00  -10.00  0.0000  0.0000    0
 121 bus-121 220   1  3  2 1.0000   0.00     7.00     18.00  115.00   52.14  220.00 1.0818   73.00   -1.00  0.0000  0.0000    0
 122 bus-122 220   1  3  2 1.0000   0.00     8.00     21.00  115.00   52.70  220.00 1.0818   73.00   -1.00  0.0000  0.0000    0
 123 bus-123 220   1  3  0 1.0000   0.00     0.00      0.00    0.00    0.00  220.00 1.0000    0.00    0.00  0.0000  0.0000    0
 124 bus-124 220   1  3  0 1.0000   0.00    59.40     11.61    0.00    0.00  220.00 1.0000    0.00    0.00  0.0000  0.0000    0
 125 bus-125 220   1  3  0 1.0000   0.00     0.00      0.00    0.00    0.00  220.00 1.0000    0.00    0.00  0.0000  0.0000    0
 126 bus-126 220   1  3  0 1.0000   0.00     0.00      0.00    0.00    0.00  220.00 1.0000    0.00    0.00  0.0000  0.0000    0
 127 bus-127 220   1  3  0 1.0000   0.00     0.00      0.00    0.00    0.00  220.00 1.0000    0.00    0.00  0.0000  0.0000    0
 128 bus-128 220   1  3  0 1.0000   0.00     0.00      0.00    0.00    0.00  220.00 1.0000    0.00    0.00  0.0000  0.0000    0
 129 bus-129 220   1  3  0 1.0000   0.00     0.00      0.00    0.00    0.00  220.00 1.0000    0.00    0.00  0.0000  0.0000    0
 130 bus-130 400   1  3  0 1.0000   0.00     0.00      0.00    0.00    0.00  400.00 1.0000    0.00    0.00  0.0000  0.0000    0
 131 bus-131 400   1  3  0 1.0000   0.00     0.00      0.00    0.00    0.00  400.00 1.0000    0.00    0.00  0.0000  0.0000    0
 132 bus-132 220   1  3  2 1.0000   0.00     0.00      1.78    0.00    0.00  220.00 1.0773   79.00    0.00  0.0000  0.0000    0
 133 bus-133 220   1  3  2 1.0000   0.00     9.00     20.00  115.00   68.61  220.00 1.0773   79.00    0.00  0.0000  0.0000    0
 134 bus-134 220   1  3  2 1.0000   0.00     6.00     15.00  105.00   28.62  220.00 1.0727   31.00    0.00  0.0000  0.0000    0
 135 bus-135 220   1  3  0 1.0000   0.00     0.00      0.00    0.00    0.00  220.00 1.0000    0.00    0.00  0.0000  0.0000    0
 136 bus-136 400   1  3  0 1.0000   0.00     0.00      0.00    0.00    0.00  400.00 1.0000    0.00    0.00  0.0000  0.0000    0
 137 bus-137 400   1  3  0 1.0000   0.00     0.00      0.00    0.00    0.00  400.00 1.0000    0.00    0.00  0.0000  0.0000    0
 138 bus-138 400   1  3  0 1.0000   0.00     0.00      0.00    0.00    0.00  400.00 1.0000    0.00    0.00  0.0000  0.0000    0
 139 bus-139 400   1  3  0 1.0000   0.00     0.00      0.00    0.00    0.00  400.00 1.0000    0.00    0.00  0.0000  0.0000    0
 140 bus-140 220   1  3  0 1.0000   0.00     0.00      0.00    0.00    0.00  220.00 1.0000    0.00    0.00  0.0000  0.0000    0
 141 bus-141 220   1  3  0 1.0000   0.00     0.00      0.00    0.00    0.00  220.00 1.0000    0.00    0.00  0.0000  0.0000    0
 142 bus-142 220   1  3  2 1.0000   0.00    18.20     37.21  205.00   68.73  220.00 1.0818  135.00  -35.00  0.0000  0.0000    0
 143 bus-143 220   1  3  2 1.0000   0.00    41.52     73.01  420.00  149.88  220.00 1.0818  275.00  -70.00  0.0000  0.0000    0
 144 bus-144 400   1  3  2 1.0000   0.00    28.00     66.00  430.00   -5.60  400.00 1.0375  277.00  -72.00  0.0000  0.0000    0
 145 bus-145 400   1  3  0 1.0000   0.00     0.00      0.00    0.00    0.00  400.00 1.0000    0.00    0.00  0.0000  0.0000    0
 146 bus-146 220   1  3  0 1.0000   0.00     0.00      0.00    0.00    0.00  220.00 1.0000    0.00    0.00  0.0000  0.0000    0
 147 bus-147 220   1  3  0 1.0000   0.00     0.00      0.00    0.00    0.00  220.00 1.0000    0.00    0.00  0.0000  0.0000    0
 148 bus-148 220   1  3  0 1.0000   0.00     0.00      0.00    0.00    0.00  220.00 1.0000    0.00    0.00  0.0000  0.0000    0
 149 bus-149 220   1  3  0 1.0000   0.00     0.00      0.00    0.00    0.00  220.00 1.0000    0.00    0.00  0.0000  0.0000    0
 150 bus-150 220   1  3  2 1.0000   0.00     0.00     -0.79    0.00    0.00  220.00 1.0409  144.00  -58.00  0.0000  0.0000    0
 151 bus-151 220   1  3  2 1.0000   0.00     0.00     -0.79    0.00    0.00  220.00 1.0409  144.00  -58.00  0.0000  0.0000    0
 152 bus-152 220   1  4  2 1.0000   0.00     7.70     20.00  110.00   95.35  220.00 1.0682  170.00  -30.00  0.0000  0.0000    0
 153 bus-153 220   1  4  2 1.0000   0.00     7.80     20.00  110.00   90.77  220.00 1.0682   85.00  -15.00  0.0000  0.0000    0
 154 bus-154 220   1  4  0 1.0000   0.00     0.00      0.00    0.00    0.00  220.00 1.0000    0.00    0.00  0.0000  0.0000    0
 155 bus-155 220   1  4  0 1.0000   0.00     0.00      0.00    0.00    0.00  220.00 1.0000    0.00    0.00  0.0000  0.0000    0
 156 bus-156 220   1  4  0 1.0000   0.00     0.00      0.00    0.00    0.00  220.00 1.0000    0.00    0.00  0.0000  0.0000    0
 157 bus-157 220   1  4  0 1.0000   0.00     0.00      0.00    0.00    0.00  220.00 1.0000    0.00    0.00  0.0000  0.0000    0
 158 bus-158 220   1  4  0 1.0000   0.00     0.00      0.00    0.00    0.00  220.00 1.0000    0.00    0.00  0.0000  0.0000    0
 159 bus-159 400   1  4  0 1.0000   0.00     0.00      0.00    0.00    0.00  400.00 1.0000    0.00    0.00  0.0000  0.0000    0
 160 bus-160 400   1  4  0 1.0000   0.00     0.00      0.00    0.00    0.00  400.00 1.0000    0.00    0.00  0.0000  0.0000    0
 161 bus-161 220   1  4  0 1.0000   0.00     0.00      0.00    0.00    0.00  220.00 1.0000    0.00    0.00  0.0000  0.0000    0
 162 bus-162 220   1  4  0 1.0000   0.00     0.00      0.00    0.00    0.00  220.00 1.0000    0.00    0.00  0.0000  0.0000    0
 163 bus-163 220   1  4  0 1.0000   0.00     0.00      0.00    0.00    0.00  220.00 1.0000    0.00    0.00  0.0000  0.0000    0
 164 bus-164 220   1  4  0 1.0000   0.00     0.00      0.00    0.00    0.00  220.00 1.0000    0.00    0.00  0.0000  0.0000    0
 165 bus-165 220   1  4  0 1.0000   0.00     0.00      0.00    0.00    0.00  220.00 1.0000    0.00    0.00  0.0000  0.0000    0
 166 bus-166 220   1  4  0 1.0000   0.00     0.00      0.00    0.00    0.00  220.00 1.0000    0.00    0.00  0.0000  0.0000    0
 167 bus-167 220   1  4  2 1.0000   0.00     0.00    -13.01    0.00    0.00  220.00 1.0500   12.00    0.00  0.0000  0.0000    0
 168 bus-168 220   1  4  0 1.0000   0.00     0.00      0.00    0.00    0.00  220.00 1.0000    0.00    0.00  0.0000  0.0000    0
 169 bus-169 220   1  4  2 1.0000   0.00    12.00     30.00  180.00   81.36  220.00 1.0818  111.00  -21.00  0.0000  0.0000    0
 170 bus-170 220   1  4  2 1.0000   0.00    19.91     36.57  180.00   62.03  220.00 1.0818  332.00  -67.00  0.0000  0.0000    0
 171 bus-171 400   1  4  2 1.0000   0.00    12.00     30.00  200.00   94.05  400.00 1.0325  102.00  -15.00  0.0000  0.0000    0
 172 bus-172 400   1  4  2 1.0000   0.00    12.00     30.00  200.00   91.80  400.00 1.0325  195.00  -25.00  0.0000  0.0000    0
 173 bus-173 220   1  4  0 1.0000   0.00     0.00      0.00    0.00    0.00  220.00 1.0000    0.00    0.00  0.0000  0.0000    0
 174 bus-174 220   1  4  0 1.0000   0.00     0.00      0.00    0.00    0.00  220.00 1.0000    0.00    0.00  0.0000  0.0000    0
 175 bus-175 220   1  4  0 1.0000   0.00     0.00      0.00    0.00    0.00  220.00 1.0000    0.00    0.00  0.0000  0.0000    0
 176 bus-176 220   1  4  0 1.0000   0.00     0.00      0.00    0.00    0.00  220.00 1.0000    0.00    0.00  0.0000  0.0000    0
 177 bus-177 220   1  4  2 1.0000   0.00    30.50     64.20  450.00  230.22  220.00 1.0909  272.00  -73.00  0.0000  0.0000    0
 178 bus-178 220   1  4  2 1.0000   0.00    58.90     96.00  675.00  348.00  220.00 1.0909  502.00 -125.00  0.0000  0.0000    0
 179 bus-179 220   1  4  0 1.0000   0.00     0.00      0.00    0.00    0.00  220.00 1.0000    0.00    0.00  0.0000  0.0000    0
 180 bus-180 400   1  4  2 1.0000   0.00    26.50     64.20  400.00  201.00  400.00 1.0300  206.00  -34.00  0.0000  0.0000    0
 181 bus-181 400   1  4  0 1.0000   0.00     0.00      0.00    0.00    0.00  400.00 1.0000    0.00    0.00  0.0000  0.0000    0
 182 bus-182 220   1  4  0 1.0000   0.00     0.00      0.00    0.00    0.00  220.00 1.0000    0.00    0.00  0.0000  0.0000    0
 183 bus-183 220   1  4  0 1.0000   0.00     0.00      0.00    0.00    0.00  220.00 1.0000    0.00    0.00  0.0000  0.0000    0
 184 bus-184 400   1  4  0 1.0000   0.00     0.00      0.00    0.00    0.00  400.00 1.0000    0.00    0.00  0.0000  0.0000    0
 185 bus-185 400   1  4  0 1.0000   0.00     0.00      0.00    0.00    0.00  400.00 1.0000    0.00    0.00  0.0000  0.0000    0
 186 bus-186 400   1  4  0 1.0000   0.00     0.00      0.00    0.00    0.00  400.00 1.0000    0.00    0.00  0.0000  0.0000    0
 187 bus-187 400   1  4  0 1.0000   0.00     0.00      0.00    0.00    0.00  400.00 1.0000    0.00    0.00  0.0000  0.0000    0
 188 bus-188 220   1  4  2 1.0000   0.00    12.00     30.00  180.00  111.49  220.00 1.0546  112.00  -32.00  0.0000  0.0000    0
 189 bus-189 220   1  4  2 1.0000   0.00    23.80     60.00  360.00  224.36  220.00 1.0546  336.00  -96.00  0.0000  0.0000    0
 190 bus-190 400   1  4  2 1.0000   0.00    38.00     64.00  400.00  255.32  400.00 1.0050  294.00 -259.00  0.0000  0.0000    0
 191 bus-191 220   1  4  0 1.0000   0.00     0.00      0.00    0.00    0.00  220.00 1.0000    0.00    0.00  0.0000  0.0000    0
 192 bus-192 220   1  4  0 1.0000   0.00     0.00      0.00    0.00    0.00  220.00 1.0000    0.00    0.00  0.0000  0.0000    0
 193 bus-193 220   1  4  0 1.0000   0.00     0.00      0.00    0.00    0.00  220.00 1.0000    0.00    0.00  0.0000  0.0000    0
 194 bus-194 220   1  4  0 1.0000   0.00     0.00      0.00    0.00    0.00  220.00 1.0000    0.00    0.00  0.0000  0.0000    0
 195 bus-195 220   1  4  0 1.0000   0.00     0.00      0.00    0.00    0.00  220.00 1.0000    0.00    0.00  0.0000  0.0000    0
 196 bus-196 220   1  4  0 1.0000   0.00     0.00      0.00    0.00    0.00  220.00 1.0000    0.00    0.00  0.0000  0.0000    0
 197 bus-197 400   1  4  0 1.0000   0.00     0.00      0.00    0.00    0.00  400.00 1.0000    0.00    0.00  0.0000  0.0000    0
 198 bus-198 220   1  4  0 1.0000   0.00     0.00      0.00    0.00    0.00  220.00 1.0000    0.00    0.00  0.0000  0.0000    0
 199 bus-199 220   1  4  0 1.0000   0.00     0.00      0.00    0.00    0.00  220.00 1.0000    0.00    0.00  0.0000  0.0000    0
 200 bus-200 220   1  4  0 1.0000   0.00     0.00      0.00    0.00    0.00  220.00 1.0000    0.00    0.00  0.0000  0.0000    0
 201 bus-201 220   1  4  0 1.0000   0.00     0.00      0.00    0.00    0.00  220.00 1.0000    0.00    0.00  0.0000  0.0000    0
 202 bus-202 220   1  4  0 1.0000   0.00     0.00      0.00    0.00    0.00  220.00 1.0000    0.00    0.00  0.0000  0.0000    0
 203 bus-203 220   1  4  0 1.0000   0.00     0.00      0.00    0.00    0.00  220.00 1.0000    0.00    0.00  0.0000  0.0000    0
 204 bus-204 220   1  4  2 1.0000   0.00     0.00     -7.17    0.00    0.00  220.00 1.0000  100.00    0.00  0.0000  0.0000    0
 205 bus-205 220   1  4  0 1.0000   0.00     0.00      0.00    0.00    0.00  220.00 1.0000    0.00    0.00  0.0000  0.0000    0
 206 bus-206 220   1  4  0 1.0000   0.00     0.00      0.00    0.00    0.00  220.00 1.0000    0.00    0.00  0.0000  0.0000    0
 207 bus-207 220   1  5  0 1.0000   0.00     0.00      0.00    0.00    0.00  220.00 1.0000    0.00    0.00  0.0000  0.0000    0
 208 bus-208 220   1  5  0 1.0000   0.00     0.00      0.00    0.00    0.00  220.00 1.0000    0.00    0.00  0.0000  0.0000    0
 209 bus-209 400   1  5  0 1.0000   0.00     0.00      0.00    0.00    0.00  400.00 1.0000    0.00    0.00  0.0000  0.0000    0
 210 bus-210 400   1  5  0 1.0000   0.00     0.00      0.00    0.00    0.00  400.00 1.0000    0.00    0.00  0.0000  0.0000    0
 211 bus-211 400   1  5  0 1.0000   0.00     0.00      0.00    0.00    0.00  400.00 1.0000    0.00    0.00  0.0000  0.0000    0
 212 bus-212 400   1  5  0 1.0000   0.00     0.00      0.00    0.00    0.00  400.00 1.0000    0.00    0.00  0.0000  0.0000    0
 213 bus-213 400   1  5  0 1.0000   0.00     0.00      0.00    0.00    0.00  400.00 1.0000    0.00    0.00  0.0000  0.0000    0
 214 bus-214 220   1  5  0 1.0000   0.00     0.00      0.00    0.00    0.00  220.00 1.0000    0.00    0.00  0.0000  0.0000    0
 215 bus-215 220   1  5  0 1.0000   0.00     0.00      0.00    0.00    0.00  220.00 1.0000    0.00    0.00  0.0000  0.0000    0
 216 bus-216 220   1  5  0 1.0000   0.00     0.00      0.00    0.00    0.00  220.00 1.0000    0.00    0.00  0.0000  0.0000    0
 217 bus-217 220   1  5  0 1.0000   0.00     0.00      0.00    0.00    0.00  220.00 1.0000    0.00    0.00  0.0000  0.0000    0
 218 bus-218 400   1  5  0 1.0000   0.00     0.00      0.00    0.00    0.00  400.00 1.0000    0.00    0.00  0.0000  0.0000    0
 219 bus-219 400   1  5  0 1.0000   0.00     0.00      0.00    0.00    0.00  400.00 1.0000    0.00    0.00  0.0000  0.0000    0
 220 bus-220 400   1  5  0 1.0000   0.00     0.00      0.00    0.00    0.00  400.00 1.0000    0.00    0.00  0.0000  0.0000    0
 221 bus-221 220   1  5  0 1.0000   0.00     0.00      0.00    0.00    0.00  220.00 1.0000    0.00    0.00  0.0000  0.0000    0
 222 bus-222 220   1  5  0 1.0000   0.00     0.00      0.00    0.00    0.00  220.00 1.0000    0.00    0.00  0.0000  0.0000    0
 223 bus-223 220   1  5  0 1.0000   0.00     0.00      0.00    0.00    0.00  220.00 1.0000    0.00    0.00  0.0000  0.0000    0
 224 bus-224 220   1  5  0 1.0000   0.00     0.00      0.00    0.00    0.00  220.00 1.0000    0.00    0.00  0.0000  0.0000    0
 225 bus-225 400   1  5  0 1.0000   0.00     0.00      0.00    0.00    0.00  400.00 1.0000    0.00    0.00  0.0000  0.0000    0
 226 bus-226 400   1  5  0 1.0000   0.00     0.00      0.00    0.00    0.00  400.00 1.0000    0.00    0.00  0.0000  0.0000    0
 227 bus-227 400   1  5  0 1.0000   0.00     0.00      0.00    0.00    0.00  400.00 1.0000    0.00    0.00  0.0000  0.0000    0
 228 bus-228 220   1  5  0 1.0000   0.00     0.00      0.00    0.00    0.00  220.00 1.0000    0.00    0.00  0.0000  0.0000    0
 229 bus-229 220   1  5  0 1.0000   0.00     0.00      0.00    0.00    0.00  220.00 1.0000    0.00    0.00  0.0000  0.0000    0
 230 bus-230 400   1  5  0 1.0000   0.00     0.00      0.00    0.00    0.00  400.00 1.0000    0.00    0.00  0.0000  0.7000    0
 231 bus-231 400   1  5  0 1.0000   0.00     0.00      0.00    0.00    0.00  400.00 1.0000    0.00    0.00  0.0000  0.0000    0
 232 bus-232 220   1  5  0 1.0000   0.00     0.00      0.00    0.00    0.00  220.00 1.0000    0.00    0.00  0.0000  0.0000    0
 233 bus-233 220   1  5  0 1.0000   0.00     0.00      0.00    0.00    0.00  220.00 1.0000    0.00    0.00  0.0000  0.0000    0