 13/05/91 CYME INTERNATIONAL    100.0 1991 S IEEE 300-BUS TEST SYSTEM
BUS DATA FOLLOWS                   6515 ITEMS
   1 bus-1   45    1  1  0 0.9927 -12.85     0.00      0.00    0.00    0.00   45.00 1.0000    0.00    0.00  0.0000  0.0000    0
   2 bus-2   63    1  1  0 1.0255  -9.79     0.00      0.00    0.00    0.00   63.00 1.0000    0.00    0.00  0.0000  0.0000    0
   3 bus-3   63    1  1  0 1.0086 -17.19    14.80      3.80    0.00    0.00   63.00 1.0000    0.00    0.00  0.0000  0.0000    0
   4 bus-4   90    1  1  0 1.0242 -30.34    49.60      2.80    0.00    0.00   90.00 1.0250    0.00    0.00  0.0000  0.0000    0
   5 bus-5   63    1  1  0 1.0090 -61.84    12.90      0.90    0.00    0.00   63.00 1.0160    0.00    0.00  0.0000  0.0000    0
   6 bus-6   63    1  1  0 1.0304 -21.87    13.00      5.30    0.00    0.00   63.00 1.0000    0.00    0.00  0.0000  0.0000    0
   7 bus-7   63    1  1  0 1.0482 -23.33     2.30      0.20    0.00    0.00   63.00 1.0000    0.00    0.00  0.0000  0.0000    0
   8 bus-8   225   1  1  0 1.0418 -22.66    15.80     -0.30    0.00    0.00  225.00 1.0000    0.00    0.00  0.0000  0.0000    0
   9 bus-9   63    1  1  0 1.0416 -20.27    14.90      0.00    0.00    0.00   63.00 1.0000    0.00    0.00  0.0000  0.0000    0
  10 bus-10  90    1  1  0 1.0133 -29.15     0.00      0.00    0.00    0.00   90.00 1.0000    0.00    0.00  0.0000  0.0000    0
  11 bus-11  90    1  1  0 1.0133 -29.15    33.20      4.90    0.05    0.00   90.00 1.0140    0.00    0.00  0.0000  0.0000    0
  12 bus-12  63    1  1  0 1.0149  -3.70     0.00      0.00    0.00    0.00   63.00 1.0000    0.00    0.00  0.0000  0.0000    0
  13 bus-13  380   1  1  0 1.0611  -5.53     0.00      0.00    0.00    0.00  380.00 1.0000    0.00    0.00  0.0000  0.0000    0
  14 bus-14  90    1  1  0 1.0556 -38.69    63.20     13.30    0.00    0.00   90.00 1.0000    0.00    0.00  0.0000  0.3040    0
  15 bus-15  63    1  1  0 1.0207 -25.23     0.00      0.00    0.00    0.00   63.00 1.0000    0.00    0.00  0.0000  0.0000    0
  16 bus-16  63    1  1  0 1.0309 -28.90    13.90      1.90    0.00    0.00   63.00 1.0000    0.00    0.00  0.0000  0.0000    0
  17 bus-17  90    1  1  0 1.0419 -35.50    10.90      0.10    0.00    0.00   90.00 1.0450    0.00    0.00  0.0000  0.0000    0
  18 bus-18  45    1  1  0 0.9388  -6.54     0.00      0.00    0.00    0.00   45.00 1.0000    0.00    0.00  0.0000  0.0000    0
  19 bus-19  63    1  1  0 1.0192 -24.08     1.00      0.00    0.00    0.00   63.00 1.0200    0.00    0.00  0.0000  0.0000    0
  20 bus-20  45    1  1  0 0.9396  -6.58     5.60    -18.00    0.00    0.00   45.00 1.0000    0.00    0.00  0.0000  0.0000    0
  21 bus-21  90    1  1  0 1.0235 -23.31     7.60     -1.60    0.00    0.00   90.00 1.0000    0.00    0.00  0.0000  0.0000    0
  22 bus-22  63    1  1  0 1.0066 -18.25    18.50      1.00    0.00    0.00   63.00 1.0070    0.00    0.00  0.0000  0.0000    0
  23 bus-23  63    1  1  0 1.0197 -11.50    22.40      2.20    0.00    0.00   63.00 1.0000    0.00    0.00  0.0000  0.0000    0
  24 bus-24  90    1  1  0 1.0262 -28.90    17.00     -1.50    0.00    0.00   90.00 1.0270    0.00    0.00  0.0000  0.0000    0
  25 bus-25  90    1  1  0 1.0621 -24.93    54.70     -1.10    0.22    0.00   90.00 1.0640    0.00    0.00  0.0000  0.0000    0
  26 bus-26  90    1  1  0 1.0192 -30.56    15.10     10.60    0.00    0.00   90.00 1.0000    0.00    0.00  0.0000  0.0000    0
  27 bus-27  225   1  1  0 1.0563 -25.69     0.00      0.00    0.00    0.00  225.00 1.0000    0.00    0.00  0.0000  0.0000    0
  28 bus-28  63    1  1  0 1.0192 -24.38     0.90     -0.20    0.00    0.00   63.00 1.0000    0.00    0.00  0.0000  0.0000    0
  29 bus-29  63    1  1  0 0.9925 -26.27    76.50      9.40    0.00    0.00   63.00 1.0000    0.00    0.00  0.0000  0.0000    0
  30 bus-30  90    1  1  0 1.0161 -29.46    39.90      3.50    0.00    0.00   90.00 1.0000    0.00    0.00  0.0000  0.0000    0
  31 bus-31  63    1  1  0 1.0433 -10.37     0.00      0.00    0.00    0.00   63.00 1.0000    0.00    0.00  0.0000  0.0000    0
  32 bus-32  150   1  1  0 1.0483  -5.18     0.00      0.00    0.00    0.00  150.00 1.0000    0.00    0.00  0.0000  0.0000    0
  33 bus-33  225   1  1  0 1.0586  -7.54     0.00      0.00    0.00    0.00  225.00 1.0000    0.00    0.00  0.0000  0.0000    0
  34 bus-34  225   1  1  0 1.0557  -6.88     0.00      0.00    0.00    0.00  225.00 1.0000    0.00    0.00  0.0000  0.0000    0
  35 bus-35  380   1  1  0 1.0721  -6.27     0.00      0.00    0.00    0.00  380.00 1.0000    0.00    0.00  0.0000  0.0000    0
  36 bus-36  380   1  1  0 1.0756  -5.29     0.00      0.00    0.00    0.00  380.00 1.0000    0.00    0.00  0.0000  0.0000    0
  37 bus-37  63    1  1  0 1.0135 -27.15    -2.70      3.00    0.00    0.00   63.00 1.0000    0.00    0.00  0.0000  0.0000    0
  38 bus-38  63    1  1  0 1.0283 -25.87     5.00     -1.00    0.00    0.00   63.00 1.0000    0.00    0.00  0.0000  0.0000    0
  39 bus-39  90    1  1  0 1.0157 -46.22    43.60     -2.90    0.00    0.00   90.00 1.0000    0.00    0.00  0.0000  0.0000    0
  40 bus-40  90    1  1  0 1.0484 -36.83    38.10      4.10    0.00    0.00   90.00 1.0540    0.00    0.00  0.0000  0.0000    0
  41 bus-41  225   1  1  0 1.0597 -31.17     0.00      0.00    0.00    0.00  225.00 1.0000    0.00    0.00  0.0000  0.0000    0
  42 bus-42  63    1  1  0 1.1232   0.17     0.00      0.00    0.00    0.00   63.00 1.0000    0.00    0.00  0.0000  0.0000    0
  43 bus-43  90    1  1  0 1.0342 -33.03     3.20      2.70    0.00    0.00   90.00 1.0000    0.00    0.00  0.0000  0.0000    0
  44 bus-44  63    1  1  0 1.0240 -57.52    13.30      0.10    0.00    0.00   63.00 1.0000    0.00    0.00  0.0000  0.0000    0
  45 bus-45  90    1  1  0 1.0141 -40.03     3.80      1.60    0.00    0.00   90.00 1.0000    0.00    0.00  0.0000  0.0000    0
  46 bus-46  63    1  1  0 1.0296 -17.10     0.00      0.00    0.00    0.00   63.00 1.0000    0.00    0.00  0.0000  0.0000    0
  47 bus-47  63    1  1  2 1.0220 -13.01     0.00      0.00   17.12  -20.00   63.00 1.0220   19.00  -20.00  0.0000  0.0000    0
  48 bus-48  90    1  1  0 1.0154 -30.48    40.40      5.60    0.00    0.00   90.00 1.0170    0.00    0.00  0.0000  0.0000    0
  49 bus-49  63    1  1  0 1.0241 -18.46     9.80     -1.90    0.00    0.00   63.00 1.0000    0.00    0.00  0.0000  0.0000    0
  50 bus-50  63    1  1  0 1.0668 -15.89     0.00      0.00    0.00    0.00   63.00 1.0000    0.00    0.00  0.0000  0.0000    0
  51 bus-51  225   1  1  0 1.0544 -10.92     0.00      0.00    0.00    0.00  225.00 1.0000    0.00    0.00  0.0000  0.0000    0
  52 bus-52  90    1  1  0 1.0282 -42.06     6.50      2.90    0.00    0.00   90.00 1.0000    0.00    0.00  0.0000  0.0000    0
  53 bus-53  63    1  1  0 0.9909 -33.20     0.00     -1.30    0.00    0.00   63.00 1.0000    0.00    0.00  0.0000  0.0000    0
  54 bus-54  90    1  1  0 1.0320 -22.30     0.30     -0.30    0.00    0.00   90.00 1.0000    0.00    0.00  0.0000  0.0000    0
  55 bus-55  225   1  1  0 1.0670 -34.61    50.90     12.30    0.00    0.00  225.00 1.0000    0.00    0.00  0.0000  0.0000    0
  56 bus-56  225   1  1  0 1.0552 -29.86    75.50     20.50    0.00    0.00  225.00 1.0000    0.00    0.00  0.0000  0.0000    0
  57 bus-57  63    1  1  2 1.0580 -20.17     0.00      0.00    4.74    1.00   63.00 1.0580    1.00    0.90  0.0000  0.0000    0
  58 bus-58  225   1  1  0 1.0669 -34.63   154.00     36.40    0.00    0.00  225.00 1.0000    0.00    0.00  0.0000  0.0000    0
  59 bus-59  63    1  1  0 1.0283 -15.39     5.00      1.00    0.00    0.00   63.00 1.0000    0.00    0.00  0.0000  0.0000    0
  60 bus-60  63    1  1  0 1.0338  -9.97     0.00      0.00    0.00    0.00   63.00 1.0000    0.00    0.00  0.0000  0.0000    0
  61 bus-61  63    1  1  0 1.0349 -11.56    46.30     11.90    0.00    0.00   63.00 1.0000    0.00    0.00  0.0000  0.0000    0
  62 bus-62  63    1  1  0 1.0206  -9.94     0.00      0.00    0.00    0.00   63.00 1.0000    0.00    0.00  0.0000  0.0000    0
  63 bus-63  63    1  1  0 1.0113  -4.27    16.80      2.90    0.00    0.00   63.00 1.0000    0.00    0.00  0.0000  0.0000    0
  64 bus-64  225   1  1  0 1.0547 -22.37    67.30      7.10    0.00    0.00  225.00 1.0560    0.00    0.00  0.0000  0.0000    0
  65 bus-65  63    1  1  0 1.0469 -12.19    12.00      2.80    0.00    0.00   63.00 1.0000    0.00    0.00  0.0000  0.0000    0
  66 bus-66  63    1  1  0 1.0271 -27.77    13.00     -6.40    0.00    0.00   63.00 1.0000    0.00    0.00  0.0000  0.0000    0
  67 bus-67  63    1  1  0 1.0395 -23.56     1.00      0.00    0.00    0.00   63.00 1.0000    0.00    0.00  0.0000  0.0000    0
  68 bus-68  63    1  1  0 1.0138 -17.07    53.10      1.10    0.00    0.00   63.00 1.0000    0.00    0.00  0.0000  0.0000    0
  69 bus-69  63    1  1  0 1.0418 -62.46    20.80      1.30    0.00    0.00   63.00 1.0450    0.00    0.00  0.0000  0.0000    0
  70 bus-70  63    1  1  0 1.0252  -2.58    10.60      4.20    0.00    0.00   63.00 1.0260    0.00    0.00  0.0000  0.0000    0
  71 bus-71  63    1  1  0 1.0098 -33.36    69.40     17.50    0.00    0.00   63.00 1.0000    0.00    0.00  0.0000  0.0000    0
  72 bus-72  225   1  1  0 1.0773 -26.62     0.00      0.00    0.00    0.00  225.00 1.0000    0.00    0.00  0.0000  0.0000    0
  73 bus-73  225   1  1  0 1.0773 -26.62     0.00      0.00    0.00    0.00  225.00 1.0000    0.00    0.00  0.0000  0.0000    0
  74 bus-74  225   1  1  0 1.0552 -22.21    58.80     -5.00    0.00    0.00  225.00 1.0000    0.00    0.00  0.0000  0.0000    0
  75 bus-75  90    1  1  0 1.0383 -25.90    25.20      1.90    0.00    0.00   90.00 1.0000    0.00    0.00  0.0000  0.0000    0
  76 bus-76  225   1  1  0 1.0767  -0.74     5.90     -2.10    0.00    0.00  225.00 1.0000    0.00    0.00  0.0000  0.0000    0
  77 bus-77  63    1  1  0 1.0154 -18.68    43.70      0.40    0.00    0.00   63.00 1.0000    0.00    0.00  0.0000  0.0000    0
  78 bus-78  63    1  1  0 1.0381 -26.04     0.00      0.00    0.00    0.00   63.00 1.0000    0.00    0.00  0.0000  0.0000    0
  79 bus-79  63    1  1  0 1.0048 -32.17     0.00      0.00    0.00    0.00   63.00 1.0000    0.00    0.00  0.0000  0.0000    0
  80 bus-80  225   1  1  0 1.0351 -31.71    32.40     10.50    0.00    0.00  225.00 1.0000    0.00    0.00  0.0000  0.0000    0
  81 bus-81  225   1  1  0 1.0352 -31.71    32.40      9.10    0.00    0.00  225.00 1.0000    0.00    0.00  0.0000  0.0000    0
  82 bus-82  63    1  1  0 1.0251 -19.75    11.30      0.30    0.00    0.00   63.00 1.0000    0.00    0.00  0.0000  0.0000    0
  83 bus-83  225   1  1  0 1.0453 -32.29    79.00     24.80    0.00    0.00  225.00 1.0000    0.00    0.00  0.0000  0.0000    0
  84 bus-84  63    1  1  0 1.0162 -14.31    -0.10      0.40    0.00    0.00   63.00 1.0000    0.00    0.00  0.0000  0.0000    0
  85 bus-85  63    1  1  0 1.0408 -18.10     0.70     -1.50    0.00    0.00   63.00 1.0420    0.00    0.00  0.0000  0.0000    0
  86 bus-86  90    1  1  0 1.0161 -49.93    48.80      5.20    0.00    0.00   90.00 1.0190    0.00    0.00  0.0000  0.0000    0
  87 bus-87  63    1  1  0 1.0233  -4.29     0.00      0.00    0.00    0.00   63.00 1.0000    0.00    0.00  0.0000  0.0000    0
  88 bus-88  63    1  1  0 1.0361 -22.05    14.80     -1.20    0.00    0.00   63.00 1.0000    0.00    0.00  0.0000  0.0000    0
  89 bus-89  90    1  1  0 1.0284 -35.76    26.20      0.30    0.00    0.00   90.00 1.0000    0.00    0.00  0.0000  0.0000    0
  90 bus-90  45    1  1  0 0.9430  -7.25     0.20     -2.30    0.00    0.00   45.00 1.0000    0.00    0.00  0.0000  0.0000    0
  91 bus-91  45    1  1  0 0.9388  -6.54     0.00      0.00    0.00    0.00   45.00 1.0000    0.00    0.00  0.0000  0.0000    0
  92 bus-92  63    1  1  0 1.0091 -21.26    31.80      1.10    0.00    0.00   63.00 1.0000    0.00    0.00  0.0000  0.0000    0
  93 bus-93  45    1  1  0 0.9543  -8.94     2.00     -2.80    0.00    0.00   45.00 1.0000    0.00    0.00  0.0000  0.0000    0
  94 bus-94  90    1  1  0 1.0348 -29.33    18.20     -4.00    0.00    0.00   90.00 1.0000    0.00    0.00  0.0000  0.0000    0
  95 bus-95  90    1  1  0 1.0233 -41.90    57.20      9.40    0.00    0.00   90.00 1.0000    0.00    0.00  0.0000  0.0000    0
  96 bus-96  63    1  1  0 1.0501 -10.47     0.90     -0.20    0.00    0.00   63.00 1.0000    0.00    0.00  0.0000  0.0000    0
  97 bus-97  63    1  1  0 1.0638 -23.15    57.70      3.80    0.00    0.00   63.00 1.0000    0.00    0.00  0.0000  0.0000    0
  98 bus-98  63    1  1  0 1.0184 -23.60     9.50      1.00    0.00    0.00   63.00 1.0000    0.00    0.00  0.0000  0.0000    0
  99 bus-99  63    1  1  0 1.0420 -11.24    35.80      5.90    0.00    0.00   63.00 1.0000    0.00    0.00  0.0000  0.0000    0
 100 bus-100 63    1  1  0 1.0199 -16.72    63.00      7.80    0.00    0.00   63.00 1.0000    0.00    0.00  0.0000  0.0000    0
 101 bus-101 63    1  1  0 1.0072 -15.40    17.30     -0.80    0.00    0.00   63.00 1.0000    0.00    0.00  0.0000  0.0000    0
 102 bus-102 63    1  1  2 1.0330 -17.54     0.00      0.00   17.16   -7.63   63.00 1.0330   21.00   -9.00  0.0000  0.0000    0
 103 bus-103 63    1  1  0 1.0340 -10.24    12.60     -1.20    0.00    0.00   63.00 1.0000    0.00    0.00  0.0000  0.0000    0
 104 bus-104 225   1  1  0 1.0690  -7.25     0.00      0.00    0.00    0.00  225.00 1.0000    0.00    0.00  0.0000  0.0000    0
 105 bus-105 225   1  1  0 1.0359 -20.67    36.90      2.20    0.00    0.00  225.00 1.0000    0.00    0.00  0.0000  0.0000    0
 106 bus-106 90    1  1  0 1.0452 -25.68    58.20     10.70    0.00    0.00   90.00 1.0000    0.00    0.00  0.0000  0.0000    0
 107 bus-107 225   1  1  0 1.0405 -31.51   107.00     14.30    0.00    0.00  225.00 1.0000    0.00    0.00  0.0000  0.0000    0
 108 bus-108 90    1  1  0 1.0464 -31.13    12.20     -2.40    0.00    0.00   90.00 1.0000    0.00    0.00  0.0000  0.0000    0
 109 bus-109 63    1  1  0 1.0391 -13.97    67.80      8.70    0.00    0.00   63.00 1.0000    0.00    0.00  0.0000  0.0000    0
 110 bus-110 225   1  1  0 1.0264 -10.00     0.00      0.00    0.00    0.00  225.00 1.0000    0.00    0.00  0.0000  0.0000    0
 111 bus-111 63    1  1  0 0.9999 -23.86    38.70     -7.50    0.00    0.00   63.00 1.0000    0.00    0.00  0.0000  0.0000    0
 112 bus-112 63    1  1  0 1.0085 -32.72     0.00      0.00    0.00    0.00   63.00 1.0000    0.00    0.00  0.0000  0.0000    0
 113 bus-113 225   1  1  0 1.0419 -29.08     0.00      0.00    0.00    0.00  225.00 1.0000    0.00    0.00  0.0000  0.0000    0
 114 bus-114 63    1  1  0 1.0516 -14.02    13.40      1.10    0.00    0.00   63.00 1.0000    0.00    0.00  0.0000  0.0000    0
 115 bus-115 380   1  1  0 1.0611  -5.53     0.00      0.00    0.00    0.00  380.00 1.0000    0.00    0.00  0.0000  0.0000    0
 116 bus-116 380   1  1  0 1.0611  -5.53     0.00      0.00    0.00    0.00  380.00 1.0000    0.00    0.00  0.0000  0.0000    0
 117 bus-117 63    1  1  0 1.0149 -22.06    14.90      0.20    0.00    0.00   63.00 1.0000    0.00    0.00  0.0000  0.0000    0
 118 bus-118 90    1  1  0 1.0407 -25.58     2.00      0.70    0.00    0.00   90.00 1.0000    0.00    0.00  0.0000  0.0000    0
 119 bus-119 63    1  1  0 1.0075 -12.29    40.60      6.90    0.00    0.00   63.00 1.0000    0.00    0.00  0.0000  0.0000    0
 120 bus-120 63    1  1  0 1.0270 -10.67    22.00     -2.30    0.00    0.00   63.00 1.0000    0.00    0.00  0.0000  0.0000    0
 121 bus-121 63    1  1  0 1.0191 -28.44    20.80      1.40    0.00    0.00   63.00 1.0000    0.00    0.00  0.0000  0.0000    0
 122 bus-122 63    1  1  2 1.0260 -11.49     0.00      0.00    6.17    2.04   63.00 1.0260    5.00   -2.00  0.0000  0.0000    0
 123 bus-123 63    1  1  0 1.0235 -11.62    12.00      4.60    0.00    0.00   63.00 1.0000    0.00    0.00  0.0000  0.0000    0
 124 bus-124 90    1  1  0 1.0306 -32.05     8.00     -0.40    0.00    0.00   90.00 1.0320    0.00    0.00  0.0000  0.0000    0
 125 bus-125 63    1  1  0 1.0245 -17.61    11.10      0.40    6.32    0.00   63.00 1.0260    0.00    0.00  0.0000  0.0000    0
 126 bus-126 63    1  1  0 1.0420 -18.17     0.20      0.80    0.00    0.00   63.00 1.0000    0.00    0.00  0.0000  0.0000    0
 127 bus-127 63    1  1  0 1.0089 -34.78    14.70      2.70    0.00    0.00   63.00 1.0000    0.00    0.00  0.0000  0.0000    0
 128 bus-128 63    1  1  0 1.0242 -13.45    13.80      7.20    0.00    0.00   63.00 1.0000    0.00    0.00  0.0000  0.0000    0
 129 bus-129 63    1  1  0 1.0223 -11.68    19.10     10.80    0.00    0.00   63.00 1.0000    0.00    0.00  0.0000  0.0000    0
 130 bus-130 225   1  1  0 1.0494 -10.76     0.00      0.00    0.00    0.00  225.00 1.0000    0.00    0.00  0.0000  0.0000    0
 131 bus-131 225   1  1  0 1.0480 -19.30   119.30     12.00    0.00    0.00  225.00 1.0000    0.00    0.00  0.0000  0.0000    0
 132 bus-132 90    1  1  2 1.0610 -17.41     9.40      0.00   12.30    3.20   90.00 1.0610   10.00  -10.00  0.0000  0.0000    0
 133 bus-133 63    1  1  0 0.9770 -35.70     2.70      0.40    0.00    0.00   63.00 1.0000    0.00    0.00  0.0000  0.0000    0
 134 bus-134 225   1  1  0 1.0192 -32.37   101.10     27.40    0.00    0.00  225.00 1.0000    0.00    0.00  0.0000  0.0000    0
 135 bus-135 225   1  1  0 1.0679 -34.44     0.00      0.00    0.00    0.00  225.00 1.0000    0.00    0.00  0.0000  0.0000    0
 136 bus-136 90    1  1  0 1.0286 -45.16    23.90      1.40    0.00    0.00   90.00 1.0000    0.00    0.00  0.0000  0.0000    0
 137 bus-137 63    1  1  2 1.0210 -13.77     8.70     -3.00    7.21   -1.00   63.00 1.0210    1.60   -1.60  0.0000  0.0000    0
 138 bus-138 150   1  1  0 1.0523 -11.85     0.00      0.00    0.00    0.00  150.00 1.0000    0.00    0.00  0.0000  0.0000    0
 139 bus-139 63    1  1  0 1.0465 -14.92     8.00      7.10    0.00    0.00   63.00 1.0000    0.00    0.00  0.0000  0.0000    0
 140 bus-140 225   1  1  0 1.0765 -11.70     0.00      0.00    0.00    0.00  225.00 1.0000    0.00    0.00  0.0000  0.8000    0
 141 bus-141 380   1  1  0 1.0876  -8.33     0.00      0.00    0.00    0.00  380.00 1.0000    0.00    0.00  0.0000  0.0000    0
 142 bus-142 63    1  1  0 1.0323 -14.90    22.40      7.40    0.00    0.00   63.00 1.0000    0.00    0.00  0.0000  0.0000    0
 143 bus-143 225   1  1  0 1.0631  -9.97     0.00      0.00    0.00    0.00  225.00 1.0000    0.00    0.00  0.0000  0.0000    0
 144 bus-144 90    1  1  0 1.0331 -26.87    16.00      5.00    0.00    0.00   90.00 1.0000    0.00    0.00  0.0000  0.0000    0
 145 bus-145 225   1  1  0 1.0564 -22.10    23.40      9.00    0.00    0.00  225.00 1.0000    0.00    0.00  0.0000  0.0000    0
 146 bus-146 380   1  1  0 1.0713 -18.88     0.00      0.00    0.00    0.00  380.00 1.0000    0.00    0.00  0.0000  0.0000    0
 147 bus-147 63    1  1  0 1.0439 -16.07    30.00      5.50    0.00    0.00   63.00 1.0000    0.00    0.00  0.0000  0.0000    0
 148 bus-148 63    1  1  0 1.0375 -13.21     6.60      1.20    0.00    0.00   63.00 1.0000    0.00    0.00  0.0000  0.0000    0
 149 bus-149 90    1  1  0 1.0341 -41.22    16.90      4.10    0.00    0.00   90.00 1.0000    0.00    0.00  0.0000  0.0000    0
 150 bus-150 63    1  1  0 1.0411 -10.86    48.50      3.20    0.00    0.00   63.00 1.0000    0.00    0.00  0.0000  0.0000    0
 151 bus-151 63    1  1  0 0.9810 -26.94     0.00      0.00    0.00    0.00   63.00 1.0000    0.00    0.00  0.0000  0.0000    0
 152 bus-152 63    1  1  0 0.9808 -25.68    45.30     12.00    0.00    0.00   63.00 1.0000    0.00    0.00  0.0000  0.0770    0
 153 bus-153 63    1  1  0 1.0418 -13.23    27.30     -5.50    0.00    0.00   63.00 1.0000    0.00    0.00  0.0000  0.0000    0
 154 bus-154 225   1  1  0 1.0667  -9.81     0.00      0.00    0.00    0.00  225.00 1.0000    0.00    0.00  0.0000  0.0000    0
 155 bus-155 63    1  1  2 1.0341 -20.22     0.00      0.00    0.00    0.47   63.00 1.0350    1.76   -1.76  0.0000  0.0000    0
 156 bus-156 63    1  1  0 0.9809 -26.94     0.00      0.00    0.00    0.00   63.00 1.0000    0.00    0.00  0.0000  0.0000    0
 157 bus-157 45    1  1  0 0.9355 -10.54     0.00     -2.20    0.00    0.00   45.00 1.0000    0.00    0.00  0.0000  0.0000    0
 158 bus-158 45    1  1  2 0.9590  -8.82     0.00      0.00   16.58    4.52   45.00 0.9590   20.00  -26.00  0.0000  0.0000    0
 159 bus-159 63    1  1  0 1.0373 -13.47     0.00      0.00    0.00    0.00   63.00 1.0000    0.00    0.00  0.0000  0.0000    0
 160 bus-160 225   1  1  0 1.0447 -19.11    41.70      5.90    0.00    0.00  225.00 1.0000    0.00    0.00  0.0000  0.0000    0
 161 bus-161 225   1  1  0 1.0445 -19.12    43.70     10.00    0.00    0.00  225.00 1.0000    0.00    0.00  0.0000  0.0000    0
 162 bus-162 90    1  1  0 1.0134 -30.32    -0.30     -1.60    0.00    0.00   90.00 1.0000    0.00    0.00  0.0000  0.0000    0
 163 bus-163 63    1  1  0 1.0280 -10.73     0.00      0.00    0.00    0.00   63.00 1.0000    0.00    0.00  0.0000  0.0000    0
 164 bus-164 63    1  1  0 1.0280 -10.73     0.00      0.00    0.00    0.00   63.00 1.0000    0.00    0.00  0.0000  0.0000    0
 165 bus-165 20    1  1  0 1.0598 -36.31    16.50     14.60    0.00    0.00   20.00 1.0000    0.00    0.00  0.0000  0.0000    0
 166 bus-166 90    1  1  0 1.0352 -40.78    13.30      3.20    0.00    0.00   90.00 1.0000    0.00    0.00  0.0000  0.0000    0
 167 bus-167 90    1  1  0 1.0300 -41.25    17.80     -0.80    0.00    0.00   90.00 1.0000    0.00    0.00  0.0000  0.0000    0
 168 bus-168 225   1  1  0 1.0600 -36.31     0.00      0.00    0.00    0.00  225.00 1.0000    0.00    0.00  0.0000  0.0000    0
 169 bus-169 90    1  1  0 1.0199 -34.65     9.90     -0.90    0.00    0.00   90.00 1.0000    0.00    0.00  0.0000  0.0000    0
 170 bus-170 90    1  1  0 1.0234 -35.07    79.80     13.50    0.00    0.00   90.00 1.0000    0.00    0.00  0.0000  0.0000    0
 171 bus-171 90    1  1  0 1.0408 -39.13    28.00      0.80    0.00    0.00   90.00 1.0000    0.00    0.00  0.0000  0.3000    0
 172 bus-172 225   1  1  0 1.0469 -34.52     0.00      0.00    0.00    0.00  225.00 1.0000    0.00    0.00  0.0000  0.0000    0
 173 bus-173 90    1  1  0 1.0590 -23.83    28.50      8.00    0.00    0.00   90.00 1.0000    0.00    0.00  0.0000  0.0000    0
 174 bus-174 90    1  1  0 1.0561 -26.55    59.70     11.60    0.00    0.00   90.00 1.0000    0.00    0.00  0.0000  0.0000    0
 175 bus-175 63    1  1  0 1.0390 -18.73     0.00      0.00    0.00    0.00   63.00 1.0000    0.00    0.00  0.0000  0.0000    0
 176 bus-176 150   1  1  2 1.0991 -16.95     0.00      0.00    0.00    0.78  150.00 1.1000   10.00   -4.00  0.0000  0.0000    0
 177 bus-177 225   1  1  0 1.0624 -31.00     0.00      0.00    0.00    0.00  225.00 1.0000    0.00    0.00  0.0000  0.0000    0
 178 bus-178 225   1  1  0 1.0624 -31.00     0.00      0.00    0.00    0.00  225.00 1.0000    0.00    0.00  0.0000  0.0000    0
 179 bus-179 63    1  1  0 1.0091 -34.77     0.00      0.00    0.00    0.00   63.00 1.0000    0.00    0.00  0.0000  0.0000    0
 180 bus-180 225   1  1  0 1.0624 -31.00     0.00      0.00    0.00    0.00  225.00 1.0000    0.00    0.00  0.0000  0.0000    0
 181 bus-181 63    1  1  0 1.0554 -25.47    12.70     -5.30    0.00    0.00   63.00 1.0000    0.00    0.00  0.0000  0.0000    0
 182 bus-182 63    1  1  0 1.0388 -11.07    16.00      3.10    0.00    0.00   63.00 1.0000    0.00    0.00  0.0000  0.0000    0
 183 bus-183 63    1  1  0 1.0247 -22.79     5.50     -1.70    0.00    0.00   63.00 1.0000    0.00    0.00  0.0000  0.0000    0
 184 bus-184 90    1  1  0 1.0625 -33.11     5.00      1.40    0.00    0.00   90.00 1.0000    0.00    0.00  0.0000  0.0000    0
 185 bus-185 63    1  1  0 1.0230 -15.83    30.60      2.70    0.00    0.00   63.00 1.0000    0.00    0.00  0.0000  0.0000    0
 186 bus-186 90    1  1  0 1.0234 -28.66     1.20      0.20    0.00    0.00   90.00 1.0000    0.00    0.00  0.0000  0.0000    0
 187 bus-187 63    1  1  2 1.0507 -20.50     0.00      0.00    0.00    3.83   63.00 1.0750   10.00  -10.00  0.0000  0.0000    0
 188 bus-188 63    1  1  0 1.0987 -19.07     0.00      0.00    0.00    0.00   63.00 1.0000    0.00    0.00  0.0000  0.0000    0
 189 bus-189 63    1  1  0 1.0372 -24.01    16.80      1.80    0.00    0.00   63.00 1.0000    0.00    0.00  0.0000  0.0000    0
 190 bus-190 45    1  1  2 0.9527  -8.26     0.00      0.00    0.00   -0.37   45.00 0.9510   14.00  -14.00  0.0000  0.0000    0
 191 bus-191 90    1  1  0 1.0202 -34.58    15.40     -1.10    0.00    0.00   90.00 1.0000    0.00    0.00  0.0000  0.0000    0
 192 bus-192 63    1  1  0 1.0577 -20.64     9.90     -0.00    9.17    0.00   63.00 1.0580    0.00    0.00  0.0000  0.0000    0
 193 bus-193 225   1  1  0 1.0421 -29.62     0.10      0.70    0.00    0.00  225.00 1.0000    0.00    0.00  0.0000  0.0000    0
 194 bus-194 63    1  1  2 1.0560 -24.81     0.70     -1.60    0.84    2.00   63.00 1.0560    2.00    1.80  0.0000  0.0000    0
 195 bus-195 63    1  1  0 1.0450 -32.46     0.00      0.00    0.00    0.00   63.00 1.0000    0.00    0.00  0.0000  0.0000    0
 196 bus-196 63    1  1  0 1.0450 -32.46     0.00      0.00    0.00    0.00   63.00 1.0000    0.00    0.00  0.0000  0.0000    0
 197 bus-197 63    1  1  0 1.0142 -32.25    27.50     -0.60    0.00    0.00   63.00 1.0000    0.00    0.00  0.0000  0.1500    0
 198 bus-198 63    1  1  0 1.0200 -23.04    11.10     -0.80    0.00    0.00   63.00 1.0000    0.00    0.00  0.0000  0.0000    0
 199 bus-199 90    1  1  0 1.0180 -48.36    12.60      2.70    0.00    0.00   90.00 1.0000    0.00    0.00  0.0000  0.0000    0
 200 bus-200 225   1  1  0 1.0835 -23.09     0.00      0.00    0.00    0.00  225.00 1.0000    0.00    0.00  0.0000  0.0000    0
 201 bus-201 225   1  1  0 1.0325 -21.03    81.00     25.60    0.00    0.00  225.00 1.0000    0.00    0.00  0.0000  0.0000    0
 202 bus-202 63    1  1  0 0.9892 -31.91    49.80      2.00    0.00    0.00   63.00 1.0000    0.00    0.00  0.0000  0.0000    0
 203 bus-203 90    1  1  0 1.0539 -21.26    28.60      3.70    0.00    0.00   90.00 1.0000    0.00    0.00  0.0000  0.0000    0
 204 bus-204 225   1  1  0 1.0628 -17.63     0.00      0.00    0.00    0.00  225.00 1.0000    0.00    0.00  0.0000  0.0000    0
 205 bus-205 380   1  1  0 1.0806 -13.93     0.00      0.00    0.00    0.00  380.00 1.0000    0.00    0.00  0.0000  0.0000    0
 206 bus-206 63    1  1  0 1.0010 -29.11    54.40      9.90    0.00    0.00   63.00 1.0000    0.00    0.00  0.0000  0.0000    0
 207 bus-207 63    1  1  0 0.9988 -14.44    33.90      4.50    0.00    0.00   63.00 1.0000    0.00    0.00  0.0000  0.0000    0
 208 bus-208 90    1  1  0 1.0299 -31.43    16.60     -0.80    0.00    0.00   90.00 1.0000    0.00    0.00  0.0000  0.0000    0
 209 bus-209 63    1  1  0 1.0177 -21.69     2.20      1.10    0.00    0.00   63.00 1.0000    0.00    0.00  0.0000  0.0000    0
 210 bus-210 63    1  1  0 1.0013 -18.02    41.50      6.30    0.00    0.00   63.00 1.0000    0.00    0.00  0.0000  0.0000    0
 211 bus-211 63    1  1  0 1.0013 -17.88    32.50     14.00    0.00    0.00   63.00 1.0000    0.00    0.00  0.0000  0.0000    0
 212 bus-212 225   1  1  0 1.0461 -17.81     0.00      0.00    0.00    0.00  225.00 1.0000    0.00    0.00  0.0000  0.0000    0
 213 bus-213 225   1  1  0 1.0460 -17.80     0.00      0.00    0.00    0.00  225.00 1.0000    0.00    0.00  0.0000  0.0000    0
 214 bus-214 90    1  1  0 1.0465 -40.90    43.10      4.50    0.00    0.00   90.00 1.0000    0.00    0.00  0.0000  0.3040    0
 215 bus-215 225   1  1  0 1.0488 -36.76     0.00      0.00    0.00    0.00  225.00 1.0000    0.00    0.00  0.0000  0.0000    0
 216 bus-216 63    1  1  0 0.9974 -21.07    21.10     -3.50    0.00    0.00   63.00 1.0000    0.00    0.00  0.0000  0.0000    0
 217 bus-217 90    1  1  0 1.0053 -36.53    31.10      2.70    0.00    0.00   90.00 1.0090    0.00    0.00  0.0000  0.0000    0
 218 bus-218 90    1  1  0 1.0318 -22.29     3.30     -0.40    0.00    0.00   90.00 1.0000    0.00    0.00  0.0000  0.0000    0
 219 bus-219 90    1  1  0 1.0473 -32.60    11.10     -4.90    0.00    0.00   90.00 1.0000    0.00    0.00  0.0000  0.0000    0
 220 bus-220 63    1  1  0 1.0231  -4.31    14.80      3.50    0.00    0.00   63.00 1.0000    0.00    0.00  0.0000  0.0000    0
 221 bus-221 63    1  1  0 1.0352 -20.27    13.00     -6.80    0.00    0.00   63.00 1.0000    0.00    0.00  0.0000  0.0000    0
 222 bus-222 225   1  1  0 1.0867 -16.94     0.00      0.00    0.00    0.00  225.00 1.0000    0.00    0.00  0.0000  0.0000    0
 223 bus-223 63    1  1  0 1.0224 -26.54    42.40      2.20    0.00    0.00   63.00 1.0000    0.00    0.00  0.0000  0.0000    0
 224 bus-224 150   1  1  2 1.0990 -16.95     0.00      0.00    0.00    0.79  150.00 1.0990    2.00    0.00  0.0000  0.0000    0
 225 bus-225 225   1  1  0 1.0537 -17.50    76.80     16.60    0.00    0.00  225.00 1.0000    0.00    0.00  0.0000  0.0000    0
 226 bus-226 225   1  1  0 1.0528 -17.49    77.80     71.50    0.00    0.00  225.00 1.0000    0.00    0.00  0.0000  0.0000    0
 227 bus-227 63    1  1  0 1.0052 -65.41     5.00     -1.90    0.00    0.00   63.00 1.0120    0.00    0.00  0.0000  0.0000    0
 228 bus-228 63    1  1  0 1.0011 -65.95    10.90     -2.00    0.00    0.00   63.00 1.0000    0.00    0.00  0.0000  0.0000    0
 229 bus-229 63    1  1  0 1.0604 -21.13    12.00     -5.00    0.00    0.00   63.00 1.0000    0.00    0.00  0.0000  0.0000    0
 230 bus-230 225   1  1  0 1.0541 -17.71     0.00      0.00    0.00    0.00  225.00 1.0000    0.00    0.00  0.0000  0.0000    0
 231 bus-231 90    1  1  0 1.0216 -33.79     7.00     -1.40    0.00    0.00   90.00 1.0000    0.00    0.00  0.0000  0.0000    0
 232 bus-232 90    1  1  0 1.0219 -17.65     7.20      0.10    0.00    0.00   90.00 1.0000    0.00    0.00  0.0000  0.0000    0
 233 bus-233 20    1  1  0 1.0549 -20.21     0.00      0.00    0.00    0.00   20.00 1.0000    0.00    0.00  0.0000  0.0000    0