 13/05/91 CYME INTERNATIONAL    100.0 1991 S IEEE 300-BUS TEST SYSTEM
BUS DATA FOLLOWS                   9241 ITEMS
   1 bus-1   220   0  6  0 1.0072 -36.86   378.40     98.50    0.00    0.00  220.00 1.0000    0.00    0.00  0.0000  0.1661    0
   2 bus-2   154   0  1  2 1.0317 -12.03     0.00      0.00  -81.40    6.64  154.00 1.0317   42.19  -20.45  0.0000  0.0000    0
   3 bus-3   220   0  5  0 1.0178 -21.79   151.00     48.80    0.00    0.00  220.00 1.0000    0.00    0.00  0.0000  0.0469    0
   4 bus-4   220   0  5  0 1.0201  -7.22   171.41     23.40    0.00    0.00  220.00 1.0000    0.00    0.00  0.0000  0.0210    0
   5 bus-5   220   0  6  0 0.9898 -49.87    45.95     14.00    0.00    0.00  220.00 1.0000    0.00    0.00  0.0000  0.1334    0
   6 bus-6   380   0  6  2 1.0385 -42.24     0.00      0.00  701.00  183.79  380.00 1.0385  524.53 -211.57  0.0000  0.0000    0
   7 bus-7   110   0 21  0 0.9691 -36.18    31.03     10.30    0.00    0.00  110.00 1.0000    0.00    0.00  0.0000  0.0065    0
   8 bus-8   154   0  1  2 1.0230 -20.77     0.00      0.00  499.70   -0.95  154.00 1.0230  251.73 -246.25  0.0000  0.0000    0
   9 bus-9   154   0  1  0 1.0327  -3.65    14.30      2.00    0.00    0.00  154.00 1.0000    0.00    0.00  0.0000  0.0191    0
  10 bus-10  220   0  5  0 1.0335 -24.65   134.00     24.70    0.00    0.00  220.00 1.0000    0.00    0.00  0.0000  0.1244    0
  11 bus-11  150   0  9  0 0.9651 -31.47     0.00      0.00    0.00    0.00  150.00 1.0000    0.00    0.00  0.0000  0.0000    0
  12 bus-12  150   0  9  0 1.0345 -26.38    -6.11      2.00    0.00    0.00  150.00 1.0000    0.00    0.00  0.0000  0.0047    0
  13 bus-13  220   0  6  0 1.0139 -48.75   -22.74     -8.32    0.00    0.00  220.00 1.0000    0.00    0.00  0.0000  0.0650    0
  14 bus-14  380   0  9  0 1.1415 -21.56    13.50     14.80    0.00    0.00  380.00 1.0000    0.00    0.00  0.0000  1.3244    0
  15 bus-15  220   0  4  0 1.0216 -48.93    59.67     26.70    0.00    0.00  220.00 1.0000    0.00    0.00  0.0000  0.1284    0
  16 bus-16  154   0  1  0 1.0324   6.06    30.60      4.30    0.00    0.00  154.00 1.0000    0.00    0.00  0.0000  0.0515    0
  17 bus-17  220   0  3  0 1.0104   6.15    67.68     12.10    0.00    0.00  220.00 1.0000    0.00    0.00  0.0000  0.0218    0
  18 bus-18  380   0  3  2 1.0267  18.11     0.00      0.00  467.50  201.91  380.00 1.0267  212.97  -93.48  0.0000  0.0000    0
  19 bus-19  110   0 12  0 1.0051 -38.46    25.33      7.50    0.00    0.00  110.00 1.0000    0.00    0.00  0.0000  0.0239    0
  20 bus-20  154   0  1  0 1.0245   6.68     1.40      0.20    0.00    0.00  154.00 1.0000    0.00    0.00  0.0000  0.0493    0
  21 bus-21  220   0  5  0 1.0315 -22.31   161.20     39.30    0.00    0.00  220.00 1.0000    0.00    0.00  0.0000  0.3071    0
  22 bus-22  220   0  5  0 1.0316 -18.75     0.00     -0.00    0.00    0.00  220.00 1.0000    0.00    0.00  0.0000  0.0085    0
  23 bus-23  110   0 19  0 1.0248 -25.63    19.62      7.10    0.00    0.00  110.00 1.0000    0.00    0.00  0.0000  0.0115    0
  24 bus-24  110   0 21  0 0.9608 -32.30    17.22      5.70    0.00    0.00  110.00 1.0000    0.00    0.00  0.0000  0.0122    0
  25 bus-25  220   0  3  2 1.0285  12.40     0.00      0.00  319.60  164.04  220.00 1.0285  179.43  -66.21  0.0000  0.0000    0
  26 bus-26  380   0  5  0 1.0296  -3.34   167.30     54.80    0.00    0.00  380.00 1.0000    0.00    0.00  0.0000  1.1054    0
  27 bus-27  380   0 13  0 1.0854  13.45    -0.00     -0.00    0.00    0.00  380.00 1.0000    0.00    0.00  0.0000  0.1482    0
  28 bus-28  150   0  9  0 1.0049 -31.84     0.00      0.00    0.00    0.00  150.00 1.0000    0.00    0.00  0.0000  0.0000    0
  29 bus-29  380   0  5  0 1.0046 -13.57   152.90     49.40    0.00    0.00  380.00 1.0000    0.00    0.00  0.0000  0.2765    0
  30 bus-30  150   0  9  0 1.0235 -29.72    -0.00      0.00    0.00    0.00  150.00 1.0000    0.00    0.00  0.0000  0.0056    0
  31 bus-31  150   0  9  0 0.9057 -35.51    69.68     43.20    0.00    0.00  150.00 1.0000    0.00    0.00  0.0000  0.0630    0
  32 bus-32  220   0  4  2 1.0032 -43.01     0.00      0.00    8.00   -1.02  220.00 1.0032    5.91   -4.56  0.0000  0.0000    0
  33 bus-33  220   0  4  2 1.0265 -38.55     0.00      0.00    5.30   -0.56  220.00 1.0265    2.27   -1.08  0.0000  0.0000    0
  34 bus-34  110   0 19  0 1.0285 -24.56    13.52      4.90    0.00    0.00  110.00 1.0000    0.00    0.00  0.0000  0.0180    0
  35 bus-35  110   0 12  0 1.0265 -36.72    10.51      3.50    0.00    0.00  110.00 1.0000    0.00    0.00  0.0000  0.0031    0
  36 bus-36  220   0 19  0 1.0452 -21.27    -0.00     -0.00    0.00    0.00  220.00 1.0000    0.00    0.00  0.0012  0.1534    0
  37 bus-37  110   0 18  0 0.9722 -29.51     9.21      2.60    0.00    0.00  110.00 1.0000    0.00    0.00  0.0000  0.0200    0
  38 bus-38  220   0  8  0 1.0229  25.56    42.75     12.80    0.00    0.00  220.00 1.0000    0.00    0.00  0.0000  0.1330    0
  39 bus-39  150   0 10  2 1.0035 -38.30     0.00      0.00   34.30    4.77  150.00 1.0035   17.76   -7.14  0.0000  0.0000    0
  40 bus-40  110   0 23  0 0.9991 -31.84    16.02      4.54    0.00    0.00  110.00 1.0000    0.00    0.00  0.0000  0.0010    0
  41 bus-41  154   0  1  0 1.0086  -8.83    27.90      4.00    0.00    0.00  154.00 1.0000    0.00    0.00  0.0000  0.0423    0
  42 bus-42  380   0  4  0 1.0424 -49.18    20.82      7.90    0.00    0.00  380.00 1.0000    0.00    0.00  0.0000  0.2689    0
  43 bus-43  154   0  1  0 1.0287 -15.91    12.60      1.80    0.00    0.00  154.00 1.0000    0.00    0.00  0.0000  0.0203    0
  44 bus-44  220   0  5  0 1.0409 -22.52    -0.00      0.00    0.00    0.00  220.00 1.0000    0.00    0.00  0.0000  0.0727    0
  45 bus-45  110   0 19  0 1.0480 -25.29    10.11      3.70    0.00    0.00  110.00 1.0000    0.00    0.00  0.0000  0.0081    0
  46 bus-46  110   0 18  0 0.9587 -29.32    10.01      2.70    0.00    0.00  110.00 1.0000    0.00    0.00  0.0000  0.0114    0
  47 bus-47  110   0 18  0 0.9859 -27.82     6.31      0.00    0.00    0.00  110.00 1.0000    0.00    0.00  0.0000  0.0067    0
  48 bus-48  110   0 15  0 1.0455 -26.61     2.90      0.90    0.00    0.00  110.00 1.0000    0.00    0.00  0.0000  0.0060    0
  49 bus-49  220   0  6  2 1.0203 -36.09     0.00      0.00  309.20   62.33  220.00 1.0203  218.52  -75.97  0.0000  0.0000    0
  50 bus-50  154   0  1  0 1.0250  -4.46    48.80      6.90    0.00    0.00  154.00 1.0000    0.00    0.00  0.0000  0.0871    0
  51 bus-51  220   0  4  2 1.0067 -48.12     0.00      0.00 -144.50   -0.31  220.00 1.0067    5.48   -4.19  0.0000  0.0000    0
  52 bus-52  150   0  8  0 1.0173   0.51   127.60     31.80    0.00    0.00  150.00 1.0000    0.00    0.00  0.0000  0.2051    0
  53 bus-53  220   0  5  0 1.0534  -9.37    48.65     16.10    0.00    0.00  220.00 1.0000    0.00    0.00  0.0000  0.0714    0
  54 bus-54  220   0  6  0 1.0239 -35.66   110.50    -26.80    0.00    0.00  220.00 1.0000    0.00    0.00  0.0000  0.1637    0
  55 bus-55  220   0  3  0 0.9968   9.00     0.00     -0.00    0.00    0.00  220.00 1.0000    0.00    0.00  0.0000  0.0123    0
  56 bus-56  220   0  3  0 1.0106 -16.92   140.00     79.70    0.00    0.00  220.00 1.0000    0.00    0.00  0.0000  0.0650    0
  57 bus-57  154   0  1  0 1.0065  -9.69    21.60      3.00    0.00    0.00  154.00 1.0000    0.00    0.00  0.0000  0.0354    0
  58 bus-58  380   0  5  0 1.0271 -22.18     0.00      0.00    0.00    0.00  380.00 1.0000    0.00    0.00  0.0000  0.0231    0
  59 bus-59  220   0  5  0 1.0267 -24.17   119.20     20.70    0.00    0.00  220.00 1.0000    0.00    0.00  0.0000  0.0331    0
  60 bus-60  110   0 18  0 1.0243 -19.93     0.24     -1.66    0.00    0.00  110.00 1.0000    0.00    0.00  0.0000  0.0065    0
  61 bus-61  380   0  3  0 1.0927  45.90    -0.00      0.00    0.00    0.00  380.00 1.0000    0.00    0.00  0.0000  0.5857    0
  62 bus-62  110   0 18  0 0.9702 -27.71    -0.00      0.00    0.00    0.00  110.00 1.0000    0.00    0.00  0.0000  0.0134    0
  63 bus-63  380   0  3  0 1.0203   5.46   187.90    110.20    0.00    0.00  380.00 1.0000    0.00    0.00  0.0000  0.2125    0
  64 bus-64  110   0 15  0 1.0582 -24.08    14.92      5.50    0.00    0.00  110.00 1.0000    0.00    0.00  0.0000  0.0131    0
  65 bus-65  150   0  9  0 0.9204 -33.98   -18.52      6.10    0.00    0.00  150.00 1.0000    0.00    0.00  0.0000  0.0079    0
  66 bus-66  110   0 19  0 1.0758 -17.39     4.61      1.70    0.00    0.00  110.00 1.0000    0.00    0.00  0.0000  0.0232    0
  67 bus-67  380   0 18  0 1.0768 -22.67     0.00      0.00    0.00    0.00  380.00 1.0000    0.00    0.00  0.0010  0.8213    0
  68 bus-68  110   0 18  0 0.9323 -32.56    10.81      5.10    0.00    0.00  110.00 1.0000    0.00    0.00  0.0000  0.0109    0
  69 bus-69  150   0  8  0 1.0164  -0.75    62.87     20.50    0.00    0.00  150.00 1.0000    0.00    0.00  0.0000  0.0115    0
  70 bus-70  154   0  1  0 1.0218  -7.28     0.00      0.00    0.00    0.00  154.00 1.0000    0.00    0.00  0.0000  0.0264    0
  71 bus-71  150   0  8  0 1.0457   2.67   126.30     42.40    0.00    0.00  150.00 1.0000    0.00    0.00  0.0000  0.5524    0
  72 bus-72  220   0  4  0 1.0073 -41.16     6.91     -4.60    0.00    0.00  220.00 1.0000    0.00    0.00  0.0000  0.0575    0
  73 bus-73  110   0 12  0 1.0113 -38.96    15.72      5.20    0.00    0.00  110.00 1.0000    0.00    0.00  0.0000  0.0011    0
  74 bus-74  150   0  9  0 1.0485 -29.25     0.00      0.00    0.00    0.00  150.00 1.0000    0.00    0.00  0.0000  0.0000    0
  75 bus-75  220   0  4  0 1.0190 -53.24    38.74      6.10    0.00    0.00  220.00 1.0000    0.00    0.00  0.0000  0.0117    0
  76 bus-76  220   0  8  0 1.0229  25.57    22.13     10.70    0.00    0.00  220.00 1.0000    0.00    0.00  0.0000  0.1421    0
  77 bus-77  220   0  4  0 1.0067 -49.60    -0.00     -0.00    0.00    0.00  220.00 1.0000    0.00    0.00  0.0000  0.0073    0
  78 bus-78  110   0 18  0 0.9818 -20.87     0.00     -0.00    0.00    0.00  110.00 1.0000    0.00    0.00  0.0000  0.0083    0
  79 bus-79  380   0  3  0 1.0144  13.84   138.80    136.70    0.00    0.00  380.00 1.0000    0.00    0.00  0.0000  0.0876    0
  80 bus-80  220   0 23  2 1.0684 -26.94     0.00      0.00   43.20    2.23  220.00 1.0684  139.94  -43.78  0.0000  0.0000    0
  81 bus-81  150   0  1  0 1.0109  61.41    67.76     19.18    0.00    0.00  150.00 1.0000    0.00    0.00  0.0000  0.0147    0
  82 bus-82  110   0  1  0 1.0324 -34.39    22.02      5.10    0.00    0.00  110.00 1.0000    0.00    0.00  0.0000  0.0069    0
  83 bus-83  220   0  3  0 0.9803  13.45     0.00      0.00    0.00    0.00  220.00 1.0000    0.00    0.00  0.0000  0.0662    0
  84 bus-84  110   0 19  0 1.0187 -30.24     1.00      0.30    0.00    0.00  110.00 1.0000    0.00    0.00  0.0000  0.0019    0
  85 bus-85  154   0  1  0 1.0221  16.41    20.90      3.00    0.00    0.00  154.00 1.0000    0.00    0.00  0.0000  0.0574    0
  86 bus-86  150   0  9  0 1.0511 -24.67     0.00      0.00    0.00    0.00  150.00 1.0000    0.00    0.00  0.0000  0.0012    0
  87 bus-87  110   0 18  0 1.0179 -15.04    21.52      5.10    0.00    0.00  110.00 1.0000    0.00    0.00  0.0000  0.0050    0
  88 bus-88  220   0  6  0 1.0067 -37.07    71.98     28.80    0.00    0.00  220.00 1.0000    0.00    0.00  0.0000  0.1100    0
  89 bus-89  380   0  2  0 0.9910  -5.00     0.00      0.00    0.00    0.00  380.00 1.0000    0.00    0.00  0.0020  0.0453    0
  90 bus-90  220   0  5  0 1.0420 -27.99   363.25    115.39    0.00    0.00  220.00 1.0000    0.00    0.00  0.0000  0.0395    0
  91 bus-91  150   0  8  0 1.0270   0.21    -0.00      0.00    0.00    0.00  150.00 1.0000    0.00    0.00  0.0000  0.0002    0
  92 bus-92  380   0  3  0 1.0222   3.83   192.90     73.30    0.00    0.00  380.00 1.0000    0.00    0.00  0.0000  0.2075    0
  93 bus-93  110   0 19  0 1.0591 -21.28    17.52      6.30    0.00    0.00  110.00 1.0000    0.00    0.00  0.0000  0.0026    0
  94 bus-94  110   0 19  0 1.0077 -25.49    33.14     12.00    0.00    0.00  110.00 1.0000    0.00    0.00  0.0000  0.0065    0
  95 bus-95  150   0  9  0 0.9800 -30.35    40.45     25.00    0.00    0.00  150.00 1.0000    0.00    0.00  0.0000  0.0982    0
  96 bus-96  220   0  5  0 1.0368 -15.46   193.17     53.37    0.00    0.00  220.00 1.0000    0.00    0.00  0.0000  0.0458    0
  97 bus-97  380   0  1  0 1.0533   2.67     0.00      0.00    0.00    0.00  380.00 1.0000    0.00    0.00  0.0000  0.0938    0
  98 bus-98  220   0  3  0 1.0481  -2.63    90.70     25.50    0.00    0.00  220.00 1.0000    0.00    0.00  0.0000  0.0311    0
  99 bus-99  380   0  6  0 1.0251 -33.27   176.30    -58.90    0.00    0.00  380.00 1.0000    0.00    0.00  0.0000  0.2477    0
 100 bus-100 150   0  9  0 1.0339 -29.93    35.94     22.30    0.00    0.00  150.00 1.0000    0.00    0.00  0.0000  0.0000    0
 101 bus-101 150   0  9  0 0.9648 -31.48    -0.00      0.00    0.00    0.00  150.00 1.0000    0.00    0.00  0.0000  0.0029    0
 102 bus-102 220   0  6  0 1.0040 -50.62     0.00     -0.00    0.00    0.00  220.00 1.0000    0.00    0.00  0.0000  0.0377    0
 103 bus-103 150   0  9  0 0.9920 -34.27    65.07     40.30    0.00    0.00  150.00 1.0000    0.00    0.00  0.0000  0.0543    0
 104 bus-104 220   0  6  0 0.9654 -55.94    51.36     -8.80    0.00    0.00  220.00 1.0000    0.00    0.00  0.0000  0.0215    0
 105 bus-105 380   0  6  0 1.0365 -34.25    -0.00     -0.00    0.00    0.00  380.00 1.0000    0.00    0.00  0.0000  0.8255    0
 106 bus-106 380   0 23  0 1.1625 -22.49     0.00     -0.00    0.00    0.00  380.00 1.0000    0.00    0.00  0.0000  0.3119    0
 107 bus-107 380   0  3  2 1.0831  41.62     0.00      0.00  570.00  -75.96  380.00 1.0831  253.85 -113.79  0.0000  0.0000    0
 108 bus-108 110   0 18  0 1.0052 -17.95     3.80      1.30    0.00    0.00  110.00 1.0000    0.00    0.00  0.0000  0.0040    0
 109 bus-109 154   0  1  0 1.0049 -11.90   137.00     19.50    0.00    0.00  154.00 1.0000    0.00    0.00  0.0000  0.0490    0
 110 bus-110 150   0  9  0 0.9943 -32.08     0.00      0.00    0.00    0.00  150.00 1.0000    0.00    0.00  0.0000  0.0000    0
 111 bus-111 220   0 11  0 1.0498 -22.30    61.07     36.00    0.00    0.00  220.00 1.0000    0.00    0.00  0.0000  0.0309    0
 112 bus-112 220   0  3  0 1.0305  -9.59     0.00      0.00    0.00    0.00  220.00 1.0000    0.00    0.00  0.0000  0.0324    0
 113 bus-113 380   0  5  0 1.0274 -14.49    -0.00     -0.00    0.00    0.00  380.00 1.0000    0.00    0.00  0.0000  0.0653    0
 114 bus-114 154   0  1  0 1.0265   9.78    55.70      7.90    0.00    0.00  154.00 1.0000    0.00    0.00  0.0000  0.0421    0
 115 bus-115 220   0  5  0 1.0620 -20.09     0.00     -0.00    0.00    0.00  220.00 1.0000    0.00    0.00  0.0000  0.0421    0
 116 bus-116 110   0 19  0 1.0378 -21.17     1.80      0.70    0.00    0.00  110.00 1.0000    0.00    0.00  0.0000  0.0030    0
 117 bus-117 110   0 18  0 1.0025 -24.31    40.04     16.00    0.00    0.00  110.00 1.0000    0.00    0.00  0.0000  0.0052    0
 118 bus-118 380   0  5  0 1.0239 -11.32    -0.00      0.00    0.00    0.00  380.00 1.0000    0.00    0.00  0.0000  0.3656    0
 119 bus-119 150   0  9  0 1.0666 -21.23     0.00      0.00    0.00    0.00  150.00 1.0000    0.00    0.00  0.0000  0.0009    0
 120 bus-120 154   0  1  0 1.0177 -24.51   140.60     20.10    0.00    0.00  154.00 1.0000    0.00    0.00  0.0000  0.1381    0
 121 bus-121 110   0 15  0 1.0617 -25.75    45.15     14.10    0.00    0.00  110.00 1.0000    0.00    0.00  0.0000  0.0019    0
 122 bus-122 220   0  3  0 1.0026   8.04    -0.00      0.00    0.00    0.00  220.00 1.0000    0.00    0.00  0.0000  0.0575    0
 123 bus-123 220   0 11  2 1.0415 -19.87     0.00      0.00   24.90    8.45  220.00 1.0415   18.84   -6.06  0.0000  0.0000    0
 124 bus-124 220   0  5  2 1.0771   8.31     0.00      0.00  861.30   69.97  220.00 1.0771  440.32 -172.59  0.0000  0.0000    0
 125 bus-125 110   0 18  0 1.0222 -19.97     3.42      2.68    0.00    0.00  110.00 1.0000    0.00    0.00  0.0000  0.0146    0
 126 bus-126 154   0  1  0 1.0098   3.64     0.00     -0.00    0.00    0.00  154.00 1.0000    0.00    0.00  0.0000  0.0264    0
 127 bus-127 220   0  6  0 1.0218 -28.83    -0.00     -0.00    0.00    0.00  220.00 1.0000    0.00    0.00  0.0000  0.0430    0
 128 bus-128 220   0  5  0 1.0152 -16.41    23.73     12.70    0.00    0.00  220.00 1.0000    0.00    0.00  0.0000  0.0052    0
 129 bus-129 220   0  3  0 1.0196 -12.36   121.90      7.40    0.00    0.00  220.00 1.0000    0.00    0.00  0.0000  0.0134    0
 130 bus-130 380   0 10  0 1.0579 -47.31    -0.00      0.00    0.00    0.00  380.00 1.0000    0.00    0.00  0.0014  0.4775    0
 131 bus-131 110   0 22  0 1.0324 -40.26    47.35     16.40    0.00    0.00  110.00 1.0000    0.00    0.00  0.0000  0.0408    0
 132 bus-132 380   0  1  0 1.0624 -43.94     0.00     -0.00    0.00    0.00  380.00 1.0000    0.00    0.00  0.0000  0.2139    0
 133 bus-133 150   0  8  0 1.0208   2.35    38.14     12.50    0.00    0.00  150.00 1.0000    0.00    0.00  0.0000  0.0628    0
 134 bus-134 400   0  1  0 1.0129   6.19    54.20      7.80    0.00    0.00  400.00 1.0000    0.00    0.00  0.0000  0.9490    0
 135 bus-135 220   0  7  0 1.0215 -22.44   130.60     84.90    0.00    0.00  220.00 1.0000    0.00    0.00  0.0000  0.0422    0
 136 bus-136 110   0 12  0 1.0065 -36.39     7.91      2.60    0.00    0.00  110.00 1.0000    0.00    0.00  0.0000  0.0074    0
 137 bus-137 150   0  1  0 1.0031  61.69    42.10     74.61    0.00    0.00  150.00 1.0000    0.00    0.00  0.0000  0.3758    0
 138 bus-138 380   0 10  0 1.0675 -41.99   -75.38      7.80    0.00    0.00  380.00 1.0000    0.00    0.00  0.0000  0.2990    0
 139 bus-139 380   0  8  0 1.0133  16.76    -0.00     -0.00    0.00    0.00  380.00 1.0000    0.00    0.00  0.0000  0.3692    0
 140 bus-140 220   0  8  0 1.0275  17.04     0.00      0.00    0.00    0.00  220.00 1.0000    0.00    0.00  0.0000  0.0414    0
 141 bus-141 220   0 13  2 1.0507  -2.17     0.00      0.00  -73.20    5.11  220.00 1.0507   18.59   -6.33  0.0000  0.0000    0
 142 bus-142 220   0  6  2 1.0423 -30.40     0.00      0.00  158.70    2.20  220.00 1.0423   78.15  -32.40  0.0000  0.0000    0
 143 bus-143 150   0  8  0 1.0223   3.88     0.00      0.00    0.00    0.00  150.00 1.0000    0.00    0.00  0.0000  0.0000    0
 144 bus-144 380   0 14  0 1.0638  18.93     0.00      0.00    0.00    0.00  380.00 1.0000    0.00    0.00  0.0000  0.9853    0
 145 bus-145 220   0  5  0 1.0382  -8.96    38.34      5.60    0.00    0.00  220.00 1.0000    0.00    0.00  0.0000  0.0764    0
 146 bus-146 120   0 20  0 1.0851 -25.64   269.60     65.70    0.00    0.00  120.00 1.0000    0.00    0.00  0.0000  0.0000    0
 147 bus-147 220   0  7  2 1.0580 -13.50     0.00      0.00  -16.00    9.74  220.00 1.0580   70.12  -29.50  0.0000  0.0000    0
 148 bus-148 220   0  5  0 1.0346  -8.22    32.34     12.00    0.00    0.00  220.00 1.0000    0.00    0.00  0.0000  0.0610    0
 149 bus-149 380   0  6  0 1.0216 -40.90   100.10     45.10    0.00    0.00  380.00 1.0000    0.00    0.00  0.0000  0.0111    0
 150 bus-150 220   0  5  2 1.0621   2.40     0.00      0.00   67.29   -5.08  220.00 1.0621   77.09  -22.54  0.0000  0.0000    0
 151 bus-151 154   0  1  2 1.0137 -24.08     0.00      0.00 -110.35  -11.36  154.00 1.0137   37.97  -58.18  0.0000  0.0000    0
 152 bus-152 154   0  1  0 1.0503  -5.82     7.00      1.00    0.00    0.00  154.00 1.0000    0.00    0.00  0.0000  0.0469    0
 153 bus-153 150   0  7  0 1.0203 -28.20    -0.00      0.00    0.00    0.00  150.00 1.0000    0.00    0.00  0.0000  0.0056    0
 154 bus-154 110   0 12  0 1.0165 -40.25     0.00      0.00    0.00    0.00  110.00 1.0000    0.00    0.00  0.0000  0.0129    0
 155 bus-155 110   0 21  0 1.0198 -29.30    -0.00     -0.00    0.00    0.00  110.00 1.0000    0.00    0.00  0.0000  0.0170    0
 156 bus-156 150   0  9  0 0.9531 -31.91    40.34     25.00    0.00    0.00  150.00 1.0000    0.00    0.00  0.0000  0.0114    0
 157 bus-157 110   0 19  0 1.0145 -13.07     9.21      3.30    0.00    0.00  110.00 1.0000    0.00    0.00  0.0000  0.0120    0
 158 bus-158 220   0  3  0 1.0147   6.15   166.00     60.30    0.00    0.00  220.00 1.0000    0.00    0.00  0.0000  0.0057    0
 159 bus-159 150   0  9  0 1.0213 -29.69     0.00     -0.00    0.00    0.00  150.00 1.0000    0.00    0.00  0.0000  0.0010    0
 160 bus-160 154   0  1  0 1.0310   0.81    79.40     11.30    0.00    0.00  154.00 1.0000    0.00    0.00  0.0000  0.0492    0
 161 bus-161 150   0  9  0 1.0910 -27.88    -0.00     -0.00    0.00    0.00  150.00 1.0000    0.00    0.00  0.0000  0.0016    0
 162 bus-162 380   0  6  0 1.0523 -15.69     0.00      0.00    0.00    0.00  380.00 1.0000    0.00    0.00  0.0000  0.6665    0
 163 bus-163 220   0  5  0 1.0454 -10.87   147.76     32.73    0.00    0.00  220.00 1.0000    0.00    0.00  0.0000  0.0834    0
 164 bus-164 150   0  8  0 1.0208  -1.15     0.00     -0.00    0.00    0.00  150.00 1.0000    0.00    0.00  0.0000  0.0517    0
 165 bus-165 380   0  9  0 1.0732 -24.14    26.80     -3.70    0.00    0.00  380.00 1.0000    0.00    0.00  0.0000  0.5126    0
 166 bus-166 220   0  3  2 1.0407  11.78     0.00      0.00  292.20  107.13  220.00 1.0407  127.67  -56.53  0.0000  0.0000    0
 167 bus-167 220   0  3  0 1.0311  -4.86   257.50    131.10    0.00    0.00  220.00 1.0000    0.00    0.00  0.0000  0.0108    0
 168 bus-168 154   0  1  0 1.0332  12.04    16.70      2.40    0.00    0.00  154.00 1.0000    0.00    0.00  0.0000  0.0609    0
 169 bus-169 150   0  9  0 1.0455 -29.42     0.00      0.00    0.00    0.00  150.00 1.0000    0.00    0.00  0.0000  0.0191    0
 170 bus-170 220   0  1  0 1.0115  34.76    -0.00     -0.00    0.00    0.00  220.00 1.0000    0.00    0.00  0.0000  0.0235    0
 171 bus-171 220   0  5  0 1.0620 -25.50   100.80     13.20    0.00    0.00  220.00 1.0000    0.00    0.00  0.0000  0.0524    0
 172 bus-172 220   0  4  0 1.0101 -47.14   111.70     10.96    0.00    0.00  220.00 1.0000    0.00    0.00  0.0000  0.0422    0
 173 bus-173 220   0 13  0 1.0544  14.63    90.38     -5.05    0.00    0.00  220.00 1.0000    0.00    0.00  0.0000  0.0849    0
 174 bus-174 220   0  5  0 1.0715 -28.24   370.50    -17.00    0.00    0.00  220.00 1.0000    0.00    0.00  0.0000  0.0991    0
 175 bus-175 110   0 12  0 1.0037 -41.37     9.91      3.20    0.00    0.00  110.00 1.0000    0.00    0.00  0.0000  0.0067    0
 176 bus-176 150   0  9  0 1.0408 -28.53    -0.69     -5.46    0.00    0.00  150.00 1.0000    0.00    0.00  0.0000  0.0507    0
 177 bus-177 220   0 10  0 0.9698 -43.36    94.90     36.20    0.00    0.00  220.00 1.0000    0.00    0.00  0.0000  0.1646    0
 178 bus-178 150   0  9  0 1.0132 -30.42    81.09     48.00    0.00    0.00  150.00 1.0000    0.00    0.00  0.0000  0.0003    0
 179 bus-179 380   0  4  2 1.0437 -50.05     0.00      0.00 -179.20  -30.19  380.00 1.0437   52.64  -51.72  0.0000  0.0000    0
 180 bus-180 110   0 21  0 1.0295 -28.10     0.00      0.00    0.00    0.00  110.00 1.0000    0.00    0.00  0.0000  0.0054    0
 181 bus-181 110   0 22  0 1.0405 -39.64    54.96     16.90    0.00    0.00  110.00 1.0000    0.00    0.00  0.0000  0.0337    0
 182 bus-182 220   0  3  0 1.0355  39.32    19.32     26.00    0.00    0.00  220.00 1.0000    0.00    0.00  0.0000  0.0069    0
 183 bus-183 150   0  9  0 1.0315 -29.24     0.00      0.00    0.00    0.00  150.00 1.0000    0.00    0.00  0.0000  0.0183    0
 184 bus-184 220   0  5  0 1.0375 -12.25    -0.00     -0.00    0.00    0.00  220.00 1.0000    0.00    0.00  0.0000  0.0242    0
 185 bus-185 154   0  1  0 1.0080  -7.23    20.90      3.00    0.00    0.00  154.00 1.0000    0.00    0.00  0.0000  0.0411    0
 186 bus-186 110   0 21  0 1.0095 -30.52    19.92      6.60    0.00    0.00  110.00 1.0000    0.00    0.00  0.0000  0.0056    0
 187 bus-187 110   0 22  0 1.0023 -38.46    57.16      2.00    0.00    0.00  110.00 1.0000    0.00    0.00  0.0000  0.0148    0
 188 bus-188 220   0  5  0 1.0152 -19.83    36.84     13.90    0.00    0.00  220.00 1.0000    0.00    0.00  0.0000  0.0330    0
 189 bus-189 110   0 18  0 1.0012 -27.78   -15.04     -5.12    0.00    0.00  110.00 1.0000    0.00    0.00  0.0000  0.0043    0
 190 bus-190 110   0 19  2 1.0255 -21.44     0.00      0.00   90.69   31.00  110.00 1.0255   54.24  -20.63  0.0000  0.0000    0
 191 bus-191 220   0  6  0 1.0164 -36.48     0.00     -0.00    0.00    0.00  220.00 1.0000    0.00    0.00  0.0000  0.1419    0
 192 bus-192 380   0  3  2 1.0484  66.01     0.00      0.00  135.80   12.15  380.00 1.0484   91.61  -30.98  0.0000  0.0000    0
 193 bus-193 220   0  3  0 1.0319  24.42   119.90      3.70    0.00    0.00  220.00 1.0000    0.00    0.00  0.0000  0.0333    0
 194 bus-194 150   0  8  2 1.0293  13.23     0.00      0.00  268.60   42.20  150.00 1.0293  130.19  -53.53  0.0000  0.0000    0
 195 bus-195 220   0  5  0 1.0489  -9.19    73.14     21.55    0.00    0.00  220.00 1.0000    0.00    0.00  0.0000  0.0852    0
 196 bus-196 220   0  5  0 1.0691 -26.72     0.00     -0.00    0.00    0.00  220.00 1.0000    0.00    0.00  0.0000  0.1248    0
 197 bus-197 380   0  3  2 1.1000  44.83     0.00      0.00  292.20  -57.05  380.00 1.1000  123.89  -59.54  0.0000  0.0000    0
 198 bus-198 220   0  5  0 1.0113 -16.66    39.74     11.80    0.00    0.00  220.00 1.0000    0.00    0.00  0.0000  0.0144    0
 199 bus-199 150   0  8  0 1.0172   0.54    86.80     28.40    0.00    0.00  150.00 1.0000    0.00    0.00  0.0000  0.0134    0
 200 bus-200 150   0  1  0 1.0110  61.57    22.42      2.10    0.00    0.00  150.00 1.0000    0.00    0.00  0.0000  0.0019    0
 201 bus-201 220   0  4  2 1.0191 -51.45     0.00      0.00    5.20   -0.60  220.00 1.0191    2.27   -1.07  0.0000  0.0000    0
 202 bus-202 220   0 14  0 1.0288  -0.94   110.90     32.70    0.00    0.00  220.00 1.0000    0.00    0.00  0.0000  0.1540    0
 203 bus-203 154   0  1  0 1.0349  13.22    18.20      2.60    0.00    0.00  154.00 1.0000    0.00    0.00  0.0000  0.1238    0
 204 bus-204 220   0 18  0 1.0547 -23.54    -0.00     -0.00    0.00    0.00  220.00 1.0000    0.00    0.00  0.0018  0.1469    0
 205 bus-205 150   0  8  0 1.0179   4.44    46.15     18.20    0.00    0.00  150.00 1.0000    0.00    0.00  0.0000  0.0129    0
 206 bus-206 110   0 19  0 1.0629 -21.26    34.04     12.30    0.00    0.00  110.00 1.0000    0.00    0.00  0.0000  0.0023    0
 207 bus-207 220   0  5  0 1.0214 -13.77   321.98     84.40    0.00    0.00  220.00 1.0000    0.00    0.00  0.0000  0.0134    0
 208 bus-208 110   0  3  0 1.0420 -26.98    33.44     10.00    0.00    0.00  110.00 1.0000    0.00    0.00  0.0000  0.0136    0
 209 bus-209 110   0 12  2 1.0268 -36.64     0.00      0.00   25.40    9.44  110.00 1.0268   18.70   -6.17  0.0000  0.0000    0
 210 bus-210 150   0  9  0 0.9598 -37.41     0.00      0.00    0.00    0.00  150.00 1.0000    0.00    0.00  0.0000  0.0000    0
 211 bus-211 110   0  8  0 1.0310  12.82    75.28     19.20    0.00    0.00  110.00 1.0000    0.00    0.00  0.0000  0.0190    0
 212 bus-212 220   0 13  0 1.0268  -5.37    95.69     24.54    0.00    0.00  220.00 1.0000    0.00    0.00  0.0000  0.0285    0
 213 bus-213 110   0  1  0 1.0085 -35.28    37.34     10.90    0.00    0.00  110.00 1.0000    0.00    0.00  0.0000  0.0063    0
 214 bus-214 380   0 13  2 1.0798  13.26     0.00      0.00 -175.20    1.82  380.00 1.0798  192.00  -52.89  0.0000  0.0000    0
 215 bus-215 110   0 18  0 1.0022 -27.62    -0.00      0.00    0.00    0.00  110.00 1.0000    0.00    0.00  0.0000  0.0493    0
 216 bus-216 220   0  5  0 1.0369 -24.92   155.60     54.70    0.00    0.00  220.00 1.0000    0.00    0.00  0.0000  0.0221    0
 217 bus-217 220   0  5  0 1.0320  -2.88   105.20      0.10    0.00    0.00  220.00 1.0000    0.00    0.00  0.0000  0.0736    0
 218 bus-218 220   0  5  0 1.0484 -13.24    69.83     15.12    0.00    0.00  220.00 1.0000    0.00    0.00  0.0000  0.0223    0
 219 bus-219 380   0  7  2 1.0566 -15.86     0.00      0.00 1171.00  704.29  380.00 1.0566  937.43 -288.16  0.0000  0.0000    0
 220 bus-220 380   0  6  2 1.0471 -15.26     0.00      0.00  668.70 -115.27  380.00 1.0471  402.92 -146.95  0.0000  0.0000    0
 221 bus-221 380   0  5  2 1.0306 -22.73     0.00      0.00  296.00   43.03  380.00 1.0306  183.92  -65.30  0.0000  0.0000    0
 222 bus-222 150   0  1  2 1.0305  64.59     0.00      0.00 -147.30    2.36  150.00 1.0305   12.51   -5.62  0.0000  0.0000    0
 223 bus-223 110   0 21  0 1.0294 -21.25    27.03      8.80    0.00    0.00  110.00 1.0000    0.00    0.00  0.0000  0.0184    0
 224 bus-224 110   0 18  0 0.9995 -19.78     2.60      0.50    0.00    0.00  110.00 1.0000    0.00    0.00  0.0000  0.0014    0
 225 bus-225 220   0  5  0 1.0590 -20.48     0.00      0.00    0.00    0.00  220.00 1.0000    0.00    0.00  0.0000  0.0115    0
 226 bus-226 110   0 12  0 1.0257 -34.22    14.62      4.80    0.00    0.00  110.00 1.0000    0.00    0.00  0.0000  0.0102    0
 227 bus-227 220   0  7  0 1.0366 -23.03    -0.00      0.00    0.00    0.00  220.00 1.0000    0.00    0.00  0.0000  0.0255    0
 228 bus-228 150   0  2  0 1.0392  -8.58   -23.43     57.40    0.00    0.00  150.00 1.0000    0.00    0.00  0.0000  0.0000    0
 229 bus-229 380   0  6  0 1.0432 -27.47   426.60     93.70    0.00    0.00  380.00 1.0000    0.00    0.00  0.0000  0.8094    0
 230 bus-230 220   0  4  0 1.0049 -47.02   152.07     22.52    0.00    0.00  220.00 1.0000    0.00    0.00  0.0000  0.0787    0
 231 bus-231 110   0  8  0 1.0132  22.33    -0.13     -1.00    0.00    0.00  110.00 1.0000    0.00    0.00  0.0000  0.0000    0
 232 bus-232 150   0  9  0 1.0127 -24.28     0.00      0.00    0.00    0.00  150.00 1.0000    0.00    0.00  0.0000  0.0070    0
 233 bus-233 110   0 18  0 0.9513 -30.51     2.50      3.80    0.00    0.00  110.00 1.0000    0.00    0.00  0.0000  0.0015    0