 20101016 db                   100.0  2010 1                    db_sedata
BUS DATA FOLLOWS                    940 ITEMS
   1 阿城变.220.1 1   1  0 1.0533  8.338   29.624  15.5773  0.00000  0.0000  220.00 0.0000 0.00000 0.00000  0.0000  0.0000 0   
   2 阿拉坦变.60. 1   1  0 .97791  9.182   0.0200  -120.48  0.00000  0.0000  66.000 0.0000 0.00000 0.00000  0.0000  -0.623 0   
   3 阿拉坦变.60. 1   1  0 .93259  8.976   0.0025  6.40561  0.00000  0.0000  66.000 0.0000 0.00000 0.00000  0.0000  -0.634 0   
   4 阿拉坦变.220 1   1  0 1.0471  9.085   -0.498  .498100  0.00000  0.0000  220.00 0.0000 0.00000 0.00000  0.0000  0.0000 0   
   5 阿拉坦变.500 1   1  0 1.0765  8.006   0.0000  .495280  0.00000  0.0000  500.00 0.0000 0.00000 0.00000  0.0000  -3.265 0   
   6 阿南变.220.1 1   1  0 1.0540  8.397   68.324  35.5734  0.00000  0.0000  220.00 0.0000 0.00000 0.00000  0.0000  0.0000 0   
   7 敖日木风电变 1   1  0 1.0775  7.102   -16.08  -0.5710  0.00000  0.0000  220.00 0.0000 0.00000 0.00000  0.0000  0.0000 0   
   8 鞍山电厂.220 1   1  0 1.0206  -16.2   57.507  27.5178  0.00000  0.0000  220.00 0.0000 0.00000 0.00000  0.0000  0.0000 0   
   9 鞍山电厂.220 1   1  0 1.0225  -16.2   312.42  55.5790  0.00000  0.0000  220.00 0.0000 0.00000 0.00000  0.0000  0.0000 0   
  10 鞍山变.60.1  1   1  0 .93424  -16.7   2.6332  -1.6433  0.00000  0.0000  66.000 0.0000 0.00000 0.00000  0.0000  0.0000 0   
  11 鞍山变.60.2  1   1  0 .93455  -16.6   .66224  -2.3292  0.00000  0.0000  66.000 0.0000 0.00000 0.00000  0.0000  0.0000 0   
  12 鞍山变.220.1 1   1  0 1.0239  -15.9   .49765  -0.4984  0.00000  0.0000  220.00 0.0000 0.00000 0.00000  0.0000  .11200 0   
  13 鞍山变.500.1 1   1  0 1.0490  -9.91   .49911  -0.4981  0.00000  0.0000  500.00 0.0000 0.00000 0.00000  0.0000  0.0000 0   
  14 巴林变.60.1  1   1  0 .86567  -3.01   1.3776  28.7438  0.00000  0.0000  66.000 0.0000 0.00000 0.00000  0.0000  -1.126 0   
  15 巴林变.60.2  1   1  0 .89493  -2.97   0.0499  10.7598  0.00000  0.0000  66.000 0.0000 0.00000 0.00000  0.0000  -0.609 0   
  16 巴林变.220.1 1   1  0 1.0636  -2.99   .48856  -0.4993  0.00000  0.0000  220.00 0.0000 0.00000 0.00000  0.0000  0.0000 0   
  17 巴林变.500.1 1   1  0 1.0867  -3.09   0.0000  .488589  0.00000  0.0000  500.00 0.0000 0.00000 0.00000  0.0000  -1.999 0   
  18 北安变.220.1 1   1  0 1.0504  9.355   -35.97  20.3487  0.00000  0.0000  220.00 0.0000 0.00000 0.00000  0.0000  0.0000 0   
  19 巴彦变.220.1 1   1  0 1.0630  11.26   -50.86  16.5899  0.00000  0.0000  220.00 0.0000 0.00000 0.00000  0.0000  0.0000 0   
  20 白城电厂.500 1   1  0 1.0679  8.279   6.8077  9.44022  0.00000  0.0000  500.00 0.0000 0.00000 0.00000  0.0000  0.0000 0   
  21 白城变.220.1 1   1  0 1.0590  9.422   -57.20  15.3648  0.00000  0.0000  220.00 0.0000 0.00000 0.00000  0.0000  0.0000 0   
  22 北架风电变.2 1   1  0 1.0599  16.76   -31.18  .133208  0.00000  0.0000  220.00 0.0000 0.00000 0.00000  0.0000  0.0000 0   
  23 蝙蝠山风电变 1   1  0 1.0568  14.82   -16.85  -1.1086  0.00000  0.0000  220.00 0.0000 0.00000 0.00000  0.0000  0.0000 0   
  24 宾发变.220.1 1   1  0 1.0599  9.343   56.041  32.5335  0.00000  0.0000  220.00 0.0000 0.00000 0.00000  0.0000  0.0000 0   
  25 北钢变.220.1 1   1  0 1.0885  11.96   20.235  4.71063  0.00000  0.0000  220.00 0.0000 0.00000 0.00000  0.0000  0.0000 0   
  26 滨海变.220.1 1   1  0 1.0212  -20.7   55.488  3.47474  0.00000  0.0000  220.00 0.0000 0.00000 0.00000  0.0000  0.0000 0   
  27 北石洞变.220 1   1  0 1.0434  -19.3   27.518  .740809  0.00000  0.0000  220.00 0.0000 0.00000 0.00000  0.0000  0.0000 0   
  28 包家变.60.1  1   1  0 .91092  3.874   0.0000  12.6315  0.00000  0.0000  66.000 0.0000 0.00000 0.00000  0.0000  -2.400 0   
  29 包家变.220.1 1   1  0 1.0560  4.051   .49983  -0.4997  0.00000  0.0000  220.00 0.0000 0.00000 0.00000  0.0000  0.0216 0   
  30 包家变.500.1 1   1  0 1.0730  5.207   0.0000  -0.4991  0.00000  0.0000  500.00 0.0000 0.00000 0.00000  0.0000  -1.088 0   
  31 北郊变.220.1 1   1  0 1.0549  3.921   152.23  51.0906  0.00000  0.0000  220.00 0.0000 0.00000 0.00000  0.0000  0.0000 0   
  32 宝龙山变.220 1   1  0 1.0724  6.215   38.007  -0.0528  0.00000  0.0000  220.00 0.0000 0.00000 0.00000  0.0000  0.0000 0   
  33 北宁变.60.1  1   1  0 .95400  -10.0   .89808  4.37109  0.00000  0.0000  66.000 0.0000 0.00000 0.00000  0.0000  -0.599 0   
  34 北宁变.60.2  1   1  0 .95420  -9.99   .77340  3.95057  0.00000  0.0000  66.000 0.0000 0.00000 0.00000  0.0000  -0.600 0   
  35 北宁变.220.1 1   1  0 1.0551  -9.94   -0.499  -0.4960  0.00000  0.0000  220.00 0.0000 0.00000 0.00000  0.0000  0.0000 0   
  36 北宁变.500.1 1   1  0 1.0536  -9.42   -0.426  -0.4990  0.00000  0.0000  500.00 0.0000 0.00000 0.00000  0.0000  0.0000 0   
  37 渤海变.60.1  1   1  0 .95688  -20.7   0.0000  -0.3424  0.00000  0.0000  66.000 0.0000 0.00000 0.00000  0.0000  -0.600 0   
  38 渤海变.60.2  1   1  0 .95673  -20.7   0.0000  -0.3424  0.00000  0.0000  66.000 0.0000 0.00000 0.00000  0.0000  -0.599 0   
  39 渤海变.220.1 1   1  0 1.0260  -19.7   .49950  .499754  0.00000  0.0000  220.00 0.0000 0.00000 0.00000  0.0000  0.0498 0   
  40 渤海变.500.1 1   1  0 1.0546  -14.4   -0.497  .499494  0.00000  0.0000  500.00 0.0000 0.00000 0.00000  0.0000  0.0000 0   
  41 北票变.220.1 1   1  0 1.0274  -13.3   104.69  36.0075  0.00000  0.0000  220.00 0.0000 0.00000 0.00000  0.0000  0.0000 0   
  42 北清河风电变 1   1  0 1.0718  8.433   -131.1  5.00079  0.00000  0.0000  220.00 0.0000 0.00000 0.00000  0.0000  0.0000 0   
  43 宝清变.220.1 1   1  0 1.0660  15.18   15.741  6.13833  0.00000  0.0000  220.00 0.0000 0.00000 0.00000  0.0000  0.0000 0   
  44 白山热电厂.2 1   1  0 1.0527  2.185   1.7489  .485362  0.00000  0.0000  220.00 0.0000 0.00000 0.00000  0.0000  0.0000 0   
  45 北沙变.220.1 1   1  0 1.0522  9.991   -15.42  3.79549  0.00000  0.0000  220.00 0.0000 0.00000 0.00000  0.0000  0.0000 0   
  47 白山变.220.1 1   1  0 1.0546  .1235   40.880  12.6453  0.00000  0.0000  220.00 0.0000 0.00000 0.00000  0.0000  0.0000 0   
  48 北台变.220.1 1   1  0 1.0105  -13.4   211.63  93.3076  0.00000  0.0000  220.00 0.0000 0.00000 0.00000  0.0000  0.0000 0   
  49 本溪变.220.1 1   1  0 1.0188  -11.9   56.018  -0.3400  0.00000  0.0000  220.00 0.0000 0.00000 0.00000  0.0000  0.0000 0   
  50 白云变.220.1 1   1  0 1.0549  -1.73   50.824  17.2778  0.00000  0.0000  220.00 0.0000 0.00000 0.00000  0.0000  0.0000 0   
  51 白音华火电厂 1   1  0 1.0948  -2.20   17.971  -216.20  0.00000  0.0000  500.00 0.0000 0.00000 0.00000  0.0000  -3.000 0   
  52 白玉变.220.1 1   1  0 1.0279  -19.8   83.250  33.8078  0.00000  0.0000  220.00 0.0000 0.00000 0.00000  0.0000  0.0000 0   
  53 巴彦托海变.5 1   1  0 1.1316  15.40   0.0000  -0.4991  0.00000  0.0000  500.00 0.0000 0.00000 0.00000  0.0000  -3.108 0   
  54 北正风电变.2 1   1  0 1.0763  8.854   -43.27  8.25920  0.00000  0.0000  220.00 0.0000 0.00000 0.00000  0.0000  0.0000 0   
  55 宾州变.220.1 1   1  0 1.0623  9.102   26.224  1.25550  0.00000  0.0000  220.00 0.0000 0.00000 0.00000  0.0000  0.0000 0   
  56 长春热电厂.2 1   1  0 1.0641  4.746   .38609  1.31885  0.00000  0.0000  220.00 0.0000 0.00000 0.00000  0.0000  0.0000 0   
  57 曹屯变.220.1 1   1  0 1.0393  -19.6   140.21  5.42119  0.00000  0.0000  220.00 0.0000 0.00000 0.00000  0.0000  0.0000 0   
  58 城昂堡变.220 1   1  0 1.0223  -16.1   184.24  37.1007  0.00000  0.0000  220.00 0.0000 0.00000 0.00000  0.0000  0.0000 0   
  59 长白变.220.1 1   1  0 1.0698  -0.08   .10000  0.05282  0.00000  0.0000  220.00 0.0000 0.00000 0.00000  0.0000  0.0000 0   
  60 赤城东变.220 1   1  0 1.0667  -2.54   .49862  .492199  0.00000  0.0000  220.00 0.0000 0.00000 0.00000  0.0000  0.0000 0   
  61 长三热电厂.2 1   1  0 1.0560  3.734   9.9200  4.65979  0.00000  0.0000  220.00 0.0000 0.00000 0.00000  0.0000  0.0000 0   
  62 长春变.220.1 1   1  0 1.0563  3.757   91.495  25.0956  0.00000  0.0000  220.00 0.0000 0.00000 0.00000  0.0000  0.0000 0   
  63 达里风电变.2 1   1  0 1.0590  3.358   -56.89  11.1103  0.00000  0.0000  220.00 0.0000 0.00000 0.00000  0.0000  0.0000 0   
  64 长甸水电厂.2 1   1  0 1.0455  -10.5   .49945  -0.4737  0.00000  0.0000  220.00 0.0000 0.00000 0.00000  0.0000  0.0000 0   
  65 赤峰变.220.1 1   1  0 1.0557  -2.34   158.29  111.999  0.00000  0.0000  220.00 0.0000 0.00000 0.00000  0.0000  0.0030 0   
  66 晨光风电变.2 1   1  0 1.0739  13.53   -29.50  -1.8052  0.00000  0.0000  220.00 0.0000 0.00000 0.00000  0.0000  0.0000 0   
  67 草河口变.220 1   1  0 1.0213  -15.1   73.195  26.0903  0.00000  0.0000  220.00 0.0000 0.00000 0.00000  0.0000  0.0000 0   
  68 城乡变.220.1 1   1  0 1.0757  8.687   73.378  4.52629  0.00000  0.0000  220.00 0.0000 0.00000 0.00000  0.0000  0.0000 0   
  69 程家变.220.1 1   1  0 1.0232  -12.9   -0.498  -0.4999  0.00000  0.0000  220.00 0.0000 0.00000 0.00000  0.0000  0.0000 0   
  70 程家变.500.1 1   1  0 1.0556  -11.1   .49955  -0.4996  0.00000  0.0000  500.00 0.0000 0.00000 0.00000  0.0000  0.0000 0   
  71 春蕾变.220.1 1   1  0 1.0849  8.607   59.993  10.2840  0.00000  0.0000  220.00 0.0000 0.00000 0.00000  0.0000  0.0000 0   
  72 长岭变.220.1 1   1  0 1.0742  8.133   -4.249  9.74601  0.00000  0.0000  220.00 0.0000 0.00000 0.00000  0.0000  0.0000 0   
  73 吉城南变.220 1   1  0 1.0634  3.774   68.663  23.4046  0.00000  0.0000  220.00 0.0000 0.00000 0.00000  0.0000  0.0000 0   
  74 赤热B电厂.22 1   1  0 1.0564  -2.24   .18615  -0.4942  0.00000  0.0000  220.00 0.0000 0.00000 0.00000  0.0000  0.0000 0   
  75 吉长山变.220 1   1  0 1.0617  5.666   29.090  -4.2806  0.00000  0.0000  220.00 0.0000 0.00000 0.00000  0.0000  0.0000 0   
  76 辽长山变.220 1   1  0 1.0323  -19.2   115.79  42.4585  0.00000  0.0000  220.00 0.0000 0.00000 0.00000  0.0000  0.0000 0   
  77 长山电厂.220 1   1  0 1.0598  5.706   69.296  35.5720  0.00000  0.0000  220.00 0.0000 0.00000 0.00000  0.0000  0.0000 0   
  78 岔山变.220.1 1   1  0 1.0361  -19.7   46.741  10.7976  0.00000  0.0000  220.00 0.0000 0.00000 0.00000  0.0000  0.0000 0   
  79 昌图变.220.1 1   1  0 1.0629  .4336   -154.4  54.4049  0.00000  0.0000  220.00 0.0000 0.00000 0.00000  0.0000  0.0000 0   
  80 崔家变.220.1 1   1  0 1.0217  -17.5   8.5709  9.78048  0.00000  0.0000  220.00 0.0000 0.00000 0.00000  0.0000  0.0000 0   
  81 城西变.220.1 1   1  0 1.0594  3.666   30.564  12.8068  0.00000  0.0000  220.00 0.0000 0.00000 0.00000  0.0000  0.0000 0   
  82 赤西郊变.220 1   1  0 1.0579  -0.46   46.490  30.3328  0.00000  0.0000  220.00 0.0000 0.00000 0.00000  0.0000  0.0100 0   
  83 朝阳电厂.220 1   1  0 1.0362  -12.5   -0.499  -0.4957  0.00000  0.0000  220.00 0.0000 0.00000 0.00000  0.0000  0.0000 0   
  84 城园变.220.1 1   1  0 1.0536  5.426   62.393  27.1779  0.00000  0.0000  220.00 0.0000 0.00000 0.00000  0.0000  0.0000 0   
  85 才子乡风电变 1   1  0 1.0553  5.257   -32.65  2.72032  0.00000  0.0000  220.00 0.0000 0.00000 0.00000  0.0000  0.0000 0   
  86 大板变.220.1 1   1  0 1.0645  -2.75   25.585  -0.4522  0.00000  0.0000  220.00 0.0000 0.00000 0.00000  0.0000  0.0000 0   
  87 大安变.220.1 1   1  0 1.0601  6.660   37.554  11.3615  0.00000  0.0000  220.00 0.0000 0.00000 0.00000  0.0000  0.0000 0   
  88 东鞍山变.220 1   1  0 1.0201  -17.3   151.71  7.57016  0.00000  0.0000  220.00 0.0000 0.00000 0.00000  0.0000  0.0000 0   
  89 调兵山变.220 1   1  0 1.0707  3.340   -19.82  17.1326  0.00000  0.0000  220.00 0.0000 0.00000 0.00000  0.0000  0.0000 0   
  90 大成变.220.1 1   1  0 1.0510  -3.19   96.465  16.8146  0.00000  0.0000  220.00 0.0000 0.00000 0.00000  0.0000  0.0000 0   
  91 东辛庄变.220 1   1  0 1.0511  -9.93   3.9993  -12.003  0.00000  0.0000  220.00 0.0000 0.00000 0.00000  0.0000  0.0000 0   
  92 丹东北变.60. 1   1  0 .92397  -14.0   0.0000  10.2061  0.00000  0.0000  66.000 0.0000 0.00000 0.00000  0.0000  -0.600 0   
  93 丹东北变.60. 1   1  0 .92378  -14.0   0.0000  10.0410  0.00000  0.0000  66.000 0.0000 0.00000 0.00000  0.0000  -0.600 0   
  94 丹东北变.220 1   1  0 1.0374  -13.9   -0.498  -0.4901  0.00000  0.0000  220.00 0.0000 0.00000 0.00000  0.0000  0.0000 0   
  95 丹东北变.500 1   1  0 1.0637  -12.9   -0.494  -0.4991  0.00000  0.0000  500.00 0.0000 0.00000 0.00000  0.0000  0.0000 0   
  96 丹东电厂.220 1   1  0 1.0419  -13.5   -0.494  -0.4990  0.00000  0.0000  220.00 0.0000 0.00000 0.00000  0.0000  0.0000 0   
  97 丹东变.220.1 1   1  0 1.0375  -14.0   85.206  25.8491  0.00000  0.0000  220.00 0.0000 0.00000 0.00000  0.0000  0.0000 0   
  98 德惠变.220.1 1   1  0 1.0536  2.659   112.05  8.24899  0.00000  0.0000  220.00 0.0000 0.00000 0.00000  0.0000  0.0000 0   
  99 大岗风电变.2 1   1  0 1.0605  9.370   -92.22  23.9153  0.00000  0.0000  220.00 0.0000 0.00000 0.00000  0.0000  0.0000 0   
 100 大黑山风电变 1   1  0 1.0659  -0.45   -37.69  10.2566  0.00000  0.0000  220.00 0.0000 0.00000 0.00000  0.0000  0.0000 0   
 101 敦化变.220.1 1   1  0 1.0576  8.105   20.844  31.2010  0.00000  0.0000  220.00 0.0000 0.00000 0.00000  0.0000  0.0000 0   
 102 代家沟变.220 1   1  0 1.0212  -19.8   284.88  69.6725  0.00000  0.0000  220.00 0.0000 0.00000 0.00000  0.0000  0.0000 0   
 103 董家变.220.1 1   1  0 1.0593  -9.18   .49833  .493217  0.00000  0.0000  220.00 0.0000 0.00000 0.00000  0.0000  0.0000 0   
 104 董家变.220.2 1   1  0 1.0603  -9.91   .49347  -0.4430  0.00000  0.0000  220.00 0.0000 0.00000 0.00000  0.0000  0.0000 0   
 105 董家变.500.1 1   1  0 1.0564  -8.63   0.0000  .499420  0.00000  0.0000  500.00 0.0000 0.00000 0.00000  0.0000  -4.949 0   
 106 达连河变.220 1   1  0 1.0733  13.41   2.6629  88.6705  0.00000  0.0000  220.00 0.0000 0.00000 0.00000  0.0000  0.0000 0   
 107 代力吉风电变 1   1  0 1.0799  7.790   -59.51  -0.8410  0.00000  0.0000  220.00 0.0000 0.00000 0.00000  0.0000  0.0000 0   
 108 大连变.220.1 1   1  0 1.0334  -19.2   124.54  43.7889  0.00000  0.0000  220.00 0.0000 0.00000 0.00000  0.0000  0.0000 0   
 109 调煤矸石电厂 1   1  0 1.0792  5.826   -0.477  -0.4992  0.00000  0.0000  220.00 0.0000 0.00000 0.00000  0.0000  0.0000 0   
 110 东宁变.220.1 1   1  0 1.0526  10.57   -5.679  12.4020  0.00000  0.0000  220.00 0.0000 0.00000 0.00000  0.0000  0.0000 0   
 111 东郊变.220.1 1   1  0 1.0553  4.009   124.56  34.3745  0.00000  0.0000  220.00 0.0000 0.00000 0.00000  0.0000  0.0000 0   
 112 东梁变.220.1 1   1  0 1.0652  -7.57   81.333  31.8350  0.00000  0.0000  220.00 0.0000 0.00000 0.00000  0.0000  0.0000 0   
 113 东山风电变.2 1   1  0 1.0737  5.106   -75.50  2.45225  0.00000  0.0000  220.00 0.0000 0.00000 0.00000  0.0000  0.0000 0   
 114 大庆电厂.220 1   1  0 1.0659  6.976   -0.018  .497092  0.00000  0.0000  220.00 0.0000 0.00000 0.00000  0.0000  0.0000 0   
 115 大庆变.35.1  1   1  0 1.0034  8.566   .12749  -14.234  0.00000  0.0000  35.000 0.0000 0.00000 0.00000  0.0000  -1.799 0   
 116 大庆变.60.1  1   1  0 .93975  8.322   0.0000  13.2644  0.00000  0.0000  66.000 0.0000 0.00000 0.00000  0.0000  -1.800 0   
 117 大庆变.220.1 1   1  0 1.0856  8.732   .49617  .497412  0.00000  0.0000  220.00 0.0000 0.00000 0.00000  0.0000  0.0000 0   
 118 大庆变.500.1 1   1  0 1.0840  10.09   0.0000  -0.4962  0.00000  0.0000  500.00 0.0000 0.00000 0.00000  0.0000  -1.499 0   
 119 东胜变.220.1 1   1  0 1.0397  -6.03   66.469  27.3147  0.00000  0.0000  220.00 0.0000 0.00000 0.00000  0.0000  0.0000 0   
 120 大三电厂.220 1   1  0 1.0335  -19.3   16.717  2.97884  0.00000  0.0000  220.00 0.0000 0.00000 0.00000  0.0000  0.0000 0   
 121 大三电厂.220 1   1  0 1.0334  -19.3   22.029  9.41180  0.00000  0.0000  220.00 0.0000 0.00000 0.00000  0.0000  0.0000 0   
 122 大石桥变.220 1   1  0 .99758  -23.0   59.337  -3.0794  0.00000  0.0000  220.00 0.0000 0.00000 0.00000  0.0000  0.0000 0   
 123 灯塔变.220.1 1   1  0 1.0079  -13.7   136.09  27.5829  0.00000  0.0000  220.00 0.0000 0.00000 0.00000  0.0000  0.0000 0   
 124 多宝山变.220 1   1  0 1.0420  8.782   4.3408  29.7952  0.00000  0.0000  220.00 0.0000 0.00000 0.00000  0.0000  0.0000 0   
 125 大连湾电厂.2 1   1  0 1.0384  -18.8   .49917  .498858  0.00000  0.0000  220.00 0.0000 0.00000 0.00000  0.0000  0.0000 0   
 126 二道江电厂.2 1   1  0 1.0513  0.022   0.0342  .468432  0.00000  0.0000  220.00 0.0000 0.00000 0.00000  0.0000  0.0000 0   
 127 长二热电厂.2 1   1  0 1.0574  4.435   .49554  .496818  0.00000  0.0000  220.00 0.0000 0.00000 0.00000  0.0000  0.0000 0   
 128 长二热电厂.2 1   1  0 1.0575  3.907   -0.642  .904167  0.00000  0.0000  220.00 0.0000 0.00000 0.00000  0.0000  0.0000 0   
 129 范家变.220.1 1   1  0 1.0359  -19.8   191.19  27.1845  0.00000  0.0000  220.00 0.0000 0.00000 0.00000  0.0000  0.0000 0   
 130 阜北风电变.2 1   1  0 1.0731  -6.42   -74.68  -11.293  0.00000  0.0000  220.00 0.0000 0.00000 0.00000  0.0000  0.0000 0   
 131 凤城变.220.1 1   1  0 1.0291  -14.6   176.41  53.8770  0.00000  0.0000  220.00 0.0000 0.00000 0.00000  0.0000  0.0000 0   
 132 富家变.220.1 1   1  0 1.0107  -13.4   105.06  38.7616  0.00000  0.0000  220.00 0.0000 0.00000 0.00000  0.0000  0.0000 0   
 133 富锦变.220.1 1   1  0 1.0721  15.29   10.390  5.30220  0.00000  0.0000  220.00 0.0000 0.00000 0.00000  0.0000  0.0000 0   
 134 法库变.220.1 1   1  0 1.0707  5.088   87.282  56.8869  0.00000  0.0000  220.00 0.0000 0.00000 0.00000  0.0000  0.0000 0   
 135 富拉尔基变.2 1   1  0 1.0894  12.06   120.59  29.0101  0.00000  0.0000  220.00 0.0000 0.00000 0.00000  0.0000  0.0000 0   
 136 丰乐变.220.1 1   1  0 1.0474  5.569   135.74  45.7655  0.00000  0.0000  220.00 0.0000 0.00000 0.00000  0.0000  0.0000 0   
 137 丰满水电厂.2 1   1  0 1.0685  4.043   .49608  -0.4723  0.00000  0.0000  220.00 0.0000 0.00000 0.00000  0.0000  0.0000 0   
 138 富二电厂.220 1   1  0 1.0915  12.51   -0.498  .499120  0.00000  0.0000  220.00 0.0000 0.00000 0.00000  0.0000  0.0000 0   
 139 繁荣变.220.1 1   1  0 1.0529  -2.73   112.50  60.0416  0.00000  0.0000  220.00 0.0000 0.00000 0.00000  0.0000  0.0000 0   
 140 冯屯变.35.1  1   1  0 .98926  11.30   0.0000  -5.6882  0.00000  0.0000  35.000 0.0000 0.00000 0.00000  0.0000  -1.799 0   
 141 冯屯变.220.1 1   1  0 1.0896  11.30   .49831  -0.4989  0.00000  0.0000  220.00 0.0000 0.00000 0.00000  0.0000  0.0000 0   
 142 冯屯变.500.1 1   1  0 1.0911  11.30   -0.488  -0.4967  0.00000  0.0000  500.00 0.0000 0.00000 0.00000  0.0000  0.0400 0   
 143 福利变.220.1 1   1  0 1.0558  14.65   37.452  14.0871  0.00000  0.0000  220.00 0.0000 0.00000 0.00000  0.0000  0.0000 0   
 144 抚顺热电厂.2 1   1  0 1.0608  -2.66   0.0400  0.04000  0.00000  0.0000  220.00 0.0000 0.00000 0.00000  0.0000  0.0000 0   
 145 阜新电厂.220 1   1  0 1.0691  -7.02   20.258  18.2691  0.00000  0.0000  220.00 0.0000 0.00000 0.00000  0.0000  0.0000 0   
 146 扶余变.220.1 1   1  0 1.0489  3.740   81.788  22.7046  0.00000  0.0000  220.00 0.0000 0.00000 0.00000  0.0000  0.0000 0   
 147 复州城变.220 1   1  0 1.0296  -19.3   95.638  34.0081  0.00000  0.0000  220.00 0.0000 0.00000 0.00000  0.0000  0.0000 0   
 148 方正变.220.1 1   1  0 1.0820  12.63   .49944  .499862  0.00000  0.0000  220.00 0.0000 0.00000 0.00000  0.0000  0.0000 0   
 149 方正变.500.1 1   1  0 1.0814  12.36   0.0000  .497954  0.00000  0.0000  500.00 0.0000 0.00000 0.00000  0.0000  -3.537 0   
 150 甘泉变.220.1 1   1  0 1.0284  -18.8   195.49  38.6462  0.00000  0.0000  220.00 0.0000 0.00000 0.00000  0.0000  0.0000 0   
 151 钢铁变.220.1 1   1  0 1.0272  -19.8   170.48  41.3613  0.00000  0.0000  220.00 0.0000 0.00000 0.00000  0.0000  0.0000 0   
 152 弓长岭变.220 1   1  0 1.0085  -13.6   30.569  28.4074  0.00000  0.0000  220.00 0.0000 0.00000 0.00000  0.0000  0.0000 0   
 153 高城山变.220 1   1  0 1.0432  -19.3   68.801  7.76951  0.00000  0.0000  220.00 0.0000 0.00000 0.00000  0.0000  0.0000 0   
 154 呼伦贝尔电厂 1   1  0 1.1351  15.57   -0.498  -0.4725  0.00000  0.0000  500.00 0.0000 0.00000 0.00000  0.0000  0.0000 0   
 155 高集岗变.220 1   1  0 1.0677  -0.57   17.885  12.3303  0.00000  0.0000  220.00 0.0000 0.00000 0.00000  0.0000  .23660 0   
 156 甘井子热电厂 1   1  0 1.0344  -19.2   3.6045  -2.9567  0.00000  0.0000  220.00 0.0000 0.00000 0.00000  0.0000  0.0000 0   
 157 耿家变.220.1 1   1  0 1.0104  -13.8   102.58  -7.0933  0.00000  0.0000  220.00 0.0000 0.00000 0.00000  0.0000  0.0000 0   
 158 高力板风电变 1   1  0 1.0800  11.94   -23.69  2.36221  0.00000  0.0000  220.00 0.0000 0.00000 0.00000  0.0000  0.0000 0   
 159 高岭变.500.1 1   1  0 1.0693  -6.51   707.00  -93.850  0.00000  0.0000  500.00 0.0000 0.00000 0.00000  0.0000  -1.500 0   
 160 工农变.220.1 1   1  0 1.0242  -11.7   119.85  52.3225  0.00000  0.0000  220.00 0.0000 0.00000 0.00000  0.0000  0.0000 0   
 161 革镇堡变.220 1   1  0 1.0319  -19.5   103.67  34.3895  0.00000  0.0000  220.00 0.0000 0.00000 0.00000  0.0000  0.0000 0   
 162 甘旗卡变.220 1   1  0 1.0584  3.635   14.699  -5.1469  0.00000  0.0000  220.00 0.0000 0.00000 0.00000  0.0000  0.0100 0   
 163 高台山变.220 1   1  0 1.0334  -0.44   115.91  14.4953  0.00000  0.0000  220.00 0.0000 0.00000 0.00000  0.0000  0.0000 0   
 164 国庆变.220.1 1   1  0 1.0541  1.147   39.633  12.6965  0.00000  0.0000  220.00 0.0000 0.00000 0.00000  0.0000  0.0000 0   
 165 港湾变.220.1 1   1  0 1.0566  -9.99   44.461  17.2286  0.00000  0.0000  220.00 0.0000 0.00000 0.00000  0.0000  0.0000 0   
 166 公主岭变.220 1   1  0 1.0453  .6726   124.42  14.4300  0.00000  0.0000  220.00 0.0000 0.00000 0.00000  0.0000  0.0000 0   
 167 盖州变.220.1 1   1  0 1.0242  -20.0   170.91  54.5852  0.00000  0.0000  220.00 0.0000 0.00000 0.00000  0.0000  0.0000 0   
 168 哈一热电厂.2 1   1  0 1.0852  9.491   1.8284  2.25239  0.00000  0.0000  220.00 0.0000 0.00000 0.00000  0.0000  0.0000 0   
 169 哈东变.220.1 1   1  0 1.0676  9.685   101.49  34.7668  0.00000  0.0000  220.00 0.0000 0.00000 0.00000  0.0000  0.0000 0   
 170 浩良河变.220 1   1  0 1.0629  13.35   38.049  20.6446  0.00000  0.0000  220.00 0.0000 0.00000 0.00000  0.0000  0.0000 0   
 171 哈热电厂.220 1   1  0 1.0732  8.475   -0.466  -0.4809  0.00000  0.0000  220.00 0.0000 0.00000 0.00000  0.0000  0.0000 0   
 172 哈热电厂.220 1   1  0 1.0731  8.439   -0.137  -0.0976  0.00000  0.0000  220.00 0.0000 0.00000 0.00000  0.0000  0.0000 0   
 173 韩屯变.220.1 1   1  0 1.0503  -3.34   117.65  45.9649  0.00000  0.0000  220.00 0.0000 0.00000 0.00000  0.0000  0.0000 0   
 174 海湾变.220.1 1   1  0 1.0369  -18.9   9.4991  2.32220  0.00000  0.0000  220.00 0.0000 0.00000 0.00000  0.0000  0.0000 0   
 175 哈西变.220.1 1   1  0 1.0762  8.653   124.85  37.5552  0.00000  0.0000  220.00 0.0000 0.00000 0.00000  0.0000  0.0000 0   
 176 河北变.220.1 1   1  0 1.0410  -6.85   111.87  37.0732  0.00000  0.0000  220.00 0.0000 0.00000 0.00000  0.0000  0.0000 0   
 177 珲春电厂.220 1   1  0 1.0594  11.67   .49493  -0.4932  0.00000  0.0000  220.00 0.0000 0.00000 0.00000  0.0000  0.0000 0   
 178 海城变.220.1 1   1  0 1.0249  -19.3   117.89  20.0803  0.00000  0.0000  220.00 0.0000 0.00000 0.00000  0.0000  0.0000 0   
 179 鹤东郊变.220 1   1  0 1.0645  13.72   25.882  .852071  0.00000  0.0000  220.00 0.0000 0.00000 0.00000  0.0000  0.0000 0   
 180 桦甸变.220.1 1   1  0 1.0644  -0.76   37.773  13.0522  0.00000  0.0000  220.00 0.0000 0.00000 0.00000  0.0000  0.0000 0   
 181 哈达湾变.220 1   1  0 1.0566  3.652   85.120  12.3423  0.00000  0.0000  220.00 0.0000 0.00000 0.00000  0.0000  0.0000 0   
 182 黑河换流变.3 1   1  0 1.0294  9.066   .50021  38.2294  0.00000  0.0000  35.000 0.0000 0.00000 0.00000  0.0000  -0.249 0   
 183 黑河换流变.2 1   1  0 1.0259  9.080   .47190  .497964  0.00000  0.0000  220.00 0.0000 0.00000 0.00000  0.0000  0.0000 0   
 184 和龙变.220.1 1   1  0 1.0407  9.462   30.905  53.0600  0.00000  0.0000  220.00 0.0000 0.00000 0.00000  0.0000  0.0000 0   
 185 鹤南变.220.1 1   1  0 1.0691  14.89   .49952  -0.4993  0.00000  0.0000  220.00 0.0000 0.00000 0.00000  0.0000  0.0100 0   
 186 鹤岗电厂.220 1   1  0 1.0725  15.67   .49910  -0.4988  0.00000  0.0000  220.00 0.0000 0.00000 0.00000  0.0000  0.0000 0   
 187 黄海变.500.1 1   1  0 1.0688  -14.1   0.0000  .489807  0.00000  0.0000  500.00 0.0000 0.00000 0.00000  0.0000  -1.525 0   
 188 黑河变.220.1 1   1  0 1.0262  9.053   22.065  -2.1005  0.00000  0.0000  220.00 0.0000 0.00000 0.00000  0.0000  0.0000 0   
 189 黑和平变.220 1   1  0 1.0661  15.17   6.8968  -3.8229  0.00000  0.0000  220.00 0.0000 0.00000 0.00000  0.0000  0.0000 0   
 190 浑河变.220.1 1   1  0 1.0391  -6.73   147.61  45.0474  0.00000  0.0000  220.00 0.0000 0.00000 0.00000  0.0000  0.0000 0   
 191 浑江电厂.220 1   1  0 1.0566  .1557   .49994  .499501  0.00000  0.0000  220.00 0.0000 0.00000 0.00000  0.0000  0.0000 0   
 192 火炬变.220.1 1   1  0 1.0688  7.343   111.10  41.3753  0.00000  0.0000  220.00 0.0000 0.00000 0.00000  0.0000  0.0000 0   
 193 霍煤坑口电厂 1   1  0 1.0768  8.611   0.0000  -0.4738  0.00000  0.0000  500.00 0.0000 0.00000 0.00000  0.0000  -1.602 0   
 194 葫芦岛变.220 1   1  0 1.0534  -10.5   146.71  66.2466  0.00000  0.0000  220.00 0.0000 0.00000 0.00000  0.0000  0.0000 0   
 195 霍林河变.220 1   1  0 1.0429  8.546   -8.412  16.6537  0.00000  0.0000  220.00 0.0000 0.00000 0.00000  0.0000  0.0000 0   
 196 海林变.220.1 1   1  0 1.0615  10.41   17.409  4.84864  0.00000  0.0000  220.00 0.0000 0.00000 0.00000  0.0000  0.0000 0   
 197 海伦变.220.1 1   1  0 1.0422  8.802   37.502  11.5687  0.00000  0.0000  220.00 0.0000 0.00000 0.00000  0.0000  0.0000 0   
 198 霍煤电厂.110 1   1  0 1.1001  13.91   332.81  151.555  0.00000  0.0000  110.00 0.0000 0.00000 0.00000  0.0000  0.0000 0   
 199 霍煤电厂.220 1   1  0 1.0425  8.458   -0.499  -0.4982  0.00000  0.0000  220.00 0.0000 0.00000 0.00000  0.0000  0.0000 0   
 200 呼玛变.220.1 1   1  0 1.0440  9.463   -7.358  19.5560  0.00000  0.0000  220.00 0.0000 0.00000 0.00000  0.0000  0.0000 0   
 201 哈南变.35.2  1   1  0 1.0147  8.801   0.0000  -2.4531  0.00000  0.0000  35.000 0.0000 0.00000 0.00000  0.0000  -0.600 0   
 202 哈南变.220.1 1   1  0 1.0814  8.792   .49935  -0.4981  0.00000  0.0000  220.00 0.0000 0.00000 0.00000  0.0000  0.0000 0   
 203 哈南变.500.1 1   1  0 1.0793  8.820   0.0000  .496777  0.00000  0.0000  500.00 0.0000 0.00000 0.00000  0.0000  -1.400 0   
 204 红石水电厂.1 1   1  2 1.0757  .2693   1.0226  .306477  51.2598  10.240  10.000 0.0000 99999.0 -99999.  0.0000  0.0000 0   
 205 和平变.220.1 1   1  0 1.0375  -6.77   346.78  169.779  0.00000  0.0000  220.00 0.0000 0.00000 0.00000  0.0000  0.0000 0   
 206 红旗堡变.220 1   1  0 1.0223  -16.1   233.06  9.55792  0.00000  0.0000  220.00 0.0000 0.00000 0.00000  0.0000  0.0000 0   
 207 红旗变.220.1 1   1  0 1.0649  6.874   141.15  47.5822  0.00000  0.0000  220.00 0.0000 0.00000 0.00000  0.0000  0.0000 0   
 208 哈热B电厂.22 1   1  0 1.0731  10.71   .88781  6.72673  0.00000  0.0000  220.00 0.0000 0.00000 0.00000  0.0000  0.0000 0   
 209 桓仁变.220.1 1   1  0 1.0324  -14.2   10.056  -11.274  0.00000  0.0000  220.00 0.0000 0.00000 0.00000  0.0000  0.0000 0   
 210 黑曙光变.220 1   1  0 1.0891  11.53   20.195  4.74456  0.00000  0.0000  220.00 0.0000 0.00000 0.00000  0.0000  0.0000 0   
 211 哈三电厂.220 1   1  0 1.0658  10.19   -0.495  .496040  0.00000  0.0000  220.00 0.0000 0.00000 0.00000  0.0000  0.0000 0   
 212 哈三电厂.220 1   1  0 1.0731  10.07   -0.499  .499290  0.00000  0.0000  220.00 0.0000 0.00000 0.00000  0.0000  0.0000 0   
 213 黑山变.220.1 1   1  0 1.0632  -8.44   -3.277  1.92742  0.00000  0.0000  220.00 0.0000 0.00000 0.00000  0.0000  0.0000 0   
 214 虎石台变.220 1   1  0 1.0550  -2.99   44.107  29.9174  0.00000  0.0000  220.00 0.0000 0.00000 0.00000  0.0000  0.0174 0   
 215 华宝风电变.2 1   1  0 1.0801  7.699   -79.48  -2.3407  0.00000  0.0000  220.00 0.0000 0.00000 0.00000  0.0000  0.0000 0   
 216 淮河变.220.1 1   1  0 1.0433  -19.3   12.210  -6.7541  0.00000  0.0000  220.00 0.0000 0.00000 0.00000  0.0000  0.0000 0   
 217 虎林变.220.1 1   1  0 1.0279  9.971   13.854  1.65005  0.00000  0.0000  220.00 0.0000 0.00000 0.00000  0.0000  0.0000 0   
 218 花马变.220.1 1   1  0 1.0708  15.32   -16.26  1.74858  0.00000  0.0000  220.00 0.0000 0.00000 0.00000  0.0000  0.0000 0   
 219 环山变.220.1 1   1  0 1.0619  13.18   21.628  6.22882  0.00000  0.0000  220.00 0.0000 0.00000 0.00000  0.0000  0.0000 0   
 220 鸿铝变.220.1 1   1  0 1.0320  7.656   335.88  159.832  0.00000  0.0000  220.00 0.0000 0.00000 0.00000  0.0000  0.0280 0   
 221 宏伟电厂.220 1   1  0 1.0648  6.487   -0.083  -0.4993  0.00000  0.0000  220.00 0.0000 0.00000 0.00000  0.0000  0.0000 0   
 222 兴安变.220.1 1   1  0 1.0434  9.304   1.1704  2.56637  0.00000  0.0000  220.00 0.0000 0.00000 0.00000  0.0000  0.0000 0   
 223 河西变.220.1 1   1  0 1.0530  5.343   76.569  31.6921  0.00000  0.0000  220.00 0.0000 0.00000 0.00000  0.0000  0.0000 0   
 224 红兴隆变.220 1   1  0 1.0649  14.98   78.694  21.0089  0.00000  0.0000  220.00 0.0000 0.00000 0.00000  0.0000  0.0000 0   
 225 合心变.35.1  1   1  0 1.0277  4.371   0.0000  -10.414  0.00000  0.0000  35.000 0.0000 0.00000 0.00000  0.0000  -1.200 0   
 226 合心变.60.1  1   1  0 1.0112  4.317   .37272  5.47852  0.00000  0.0000  66.000 0.0000 0.00000 0.00000  0.0000  0.0000 0   
 227 合心变.220.1 1   1  0 1.0600  4.371   -0.499  -0.4978  0.00000  0.0000  220.00 0.0000 0.00000 0.00000  0.0000  0.0000 0   
 228 合心变.500.1 1   1  0 1.0728  4.752   0.0000  -0.4981  0.00000  0.0000  500.00 0.0000 0.00000 0.00000  0.0000  -2.596 0   
 229 黑鱼泡风电变 1   1  0 1.0621  10.24   -40.80  2.44984  0.00000  0.0000  220.00 0.0000 0.00000 0.00000  0.0000  0.0000 0   
 230 红阳热电厂.2 1   1  0 1.0311  -10.0   7.3667  8.10006  0.00000  0.0000  220.00 0.0000 0.00000 0.00000  0.0000  0.0000 0   
 231 铧子变.220.1 1   1  0 1.0025  -14.0   33.298  24.8966  0.00000  0.0000  220.00 0.0000 0.00000 0.00000  0.0000  0.0000 0   
 232 集安变.220.1 1   1  0 1.0511  -0.63   10.602  2.34508  0.00000  0.0000  220.00 0.0000 0.00000 0.00000  0.0000  0.0000 0   
 233 黑江北变.220 1   1  0 1.0529  9.000   92.523  51.8713  0.00000  0.0000  220.00 0.0000 0.00000 0.00000  0.0000  0.0000 0   
 234 金厂变.220.1 1   1  0 1.0502  -0.25   44.688  22.0837  0.00000  0.0000  220.00 0.0000 0.00000 0.00000  0.0000  0.0000 0   
 235 长流变.220.1 1   1  0 1.0513  -0.07   44.544  14.5897  0.00000  0.0000  220.00 0.0000 0.00000 0.00000  0.0000  0.0000 0   
 236 建昌变.220.1 1   1  0 1.0516  -11.2   43.467  11.2889  0.00000  0.0000  220.00 0.0000 0.00000 0.00000  0.0000  0.0000 0   
 237 吉林热电厂.2 1   1  0 1.0594  4.069   -0.496  .498079  0.00000  0.0000  220.00 0.0000 0.00000 0.00000  0.0000  0.0000 0   
 238 吉东丰变.60. 1   1  0 .89464  -0.25   0.0000  14.9018  0.00000  0.0000  66.000 0.0000 0.00000 0.00000  0.0000  -1.200 0   
 239 吉东丰变.60. 1   1  0 .89473  -0.21   0.0000  18.5672  0.00000  0.0000  66.000 0.0000 0.00000 0.00000  0.0000  -1.200 0   
 240 吉东丰变.60. 1   1  0 .93432  -0.26   0.0000  -157.13  0.00000  0.0000  66.000 0.0000 0.00000 0.00000  0.0000  -1.799 0   
 241 吉东丰变.220 1   1  0 1.0629  -0.26   .49065  -0.4986  0.00000  0.0000  220.00 0.0000 0.00000 0.00000  0.0000  .27660 0   