 27/07/13 ZJU RDS              100.0  2013 8         Anhuisheng Test Case
BUS DATA FOLLOWS                    9567 ITEMS
   1 皖洛河_62 1   1  2 .98000  .0000   35.500  16.6900  607.000  .00000  20.000 .98000 300.000 40.0000  .00000  .00000 0   
   2 皖洛河_52 1   1  2 .98000  .0000   35.500  16.6900  588.700  .00000  20.000 .98000 160.000 40.0000  .00000  .00000 0   
   3 皖平圩_42 1   1  2 .98000  .0000   33.160  15.5900  603.900  .00000  20.000 .98000 315.000 .000000  .00000  .00000 0   
   4 华琅琊_11 1   1  2 .98000  .0000   .00000  .000000  148.700  .00000  15.700 .98000 10.0000 -10.000  .00000  .00000 0   
   5 华袁庄_12 1   1  2 .98000  .0000   22.820  10.7300  581.300  .00000  20.000 .98000 160.000 .000000  .00000  .00000 0   
   6 华袁庄_22 1   1  2 .98000  .0000   21.040  9.88800  602.100  .00000  20.000 .98000 160.000 .000000  .00000  .00000 0   
   7 华宿州_12 1   1  2 .98000  .0000   30.380  14.2800  620.100  .00000  20.000 .98000 315.000 50.0000  .00000  .00000 0   
   8 华宿州_22 1   1  2 .98000  .0000   25.450  11.9600  545.100  .00000  20.000 .98000 315.000 50.0000  .00000  .00000 0   
   9 华凤台_12 1   1  2 .98000  .0000   22.220  10.4400  542.000  .00000  20.000 .98000 160.000 50.0000  .00000  .00000 0   
  10 华凤台_22 1   1  2 .98000  .0000   29.990  14.0900  590.200  .00000  20.000 .98000 160.000 50.0000  .00000  .00000 0   
  11 华龙子_12 1   1  2 .98000  .0000   28.340  13.3200  589.200  .00000  20.000 .98000 300.000 50.0000  .00000  .00000 0   
  12 华龙子_22 1   1  2 .98000  .0000   29.770  13.9900  588.200  .00000  20.000 .98000 300.000 50.0000  .00000  .00000 0   
  13 皖淮北_81 1   1  2 .98000  .0000   11.960  5.62100  155.600  .00000  15.700 .98000 110.000 10.0000  .00000  .00000 0   
  14 皖虎山_12 1   1  2 .98000  .0000   35.610  16.7400  658.000  .00000  20.000 .98000 250.000 .000000  .00000  .00000 0   
  15 皖临涣_22 1   1  2 .98000  .0000   18.000  8.46100  202.600  .00000  20.000 .98000 160.000 .000000  .00000  .00000 0   
  16 皖临涣_32 1   1  2 .98000  .0000   15.050  7.07500  206.900  .00000  20.000 .98000 160.000 .000000  .00000  .00000 0   
  17 皖汇源_52 1   1  2 .98000  .0000   8.8410  4.15500  203.000  .00000  20.000 .98000 75.0000 .000000  .00000  .00000 0   
  18 皖汇源_62 1   1  2 .98000  .0000   14.380  6.76000  259.800  .00000  20.000 .98000 75.0000 .000000  .00000  .00000 0   
  19 皖汇源_41 1   1  2 .98000  .0000   11.270  5.29900  90.8400  .00000  13.800 .98000 75.0000 .000000  .00000  .00000 0   
  20 皖阜润_22 1   1  2 .98000  .0000   21.510  10.1100  413.200  .00000  22.000 .98000 300.000 .000000  .00000  .00000 0   
  21 皖阜润_12 1   1  2 .98000  .0000   23.550  11.0700  415.900  .00000  22.000 .98000 300.000 50.0000  .00000  .00000 0   
  22 皖曹店G03 1   1  2 .98000  .0000   .00000  .000000  .074600  .00000  37.000 .98000 22.5000 .000000  .00000  .00000 0   
  23 皖曹店G13 1   1  2 .98000  .0000   .00000  .000000  .980500  .00000  37.000 .98000 27.0000 .000000  .00000  .00000 0   
  24 皖曹店G23 1   1  2 .98000  .0000   .00000  .000000  3.11200  .00000  37.000 .98000 24.0000 .000000  .00000  .00000 0   
  25 皖曹店G33 1   1  2 .98000  .0000   .00000  .000000  2.98400  .00000  37.000 .98000 25.5000 .000000  .00000  .00000 0   
  26 皖万寿G03 1   1  2 .98000  .0000   .00000  .000000  6.84200  .00000  37.000 .98000 15.0000 .000000  .00000  .00000 0   
  27 皖万寿G13 1   1  2 .98000  .0000   .00000  .000000  6.37300  .00000  37.000 .98000 15.0000 .000000  .00000  .00000 0   
  28 皖来安G13 1   1  2 .98000  .0000   .00000  .000000  .966500  .00000  37.000 .98000 13.5000 .000000  .00000  .00000 0   
  29 皖来安G23 1   1  2 .98000  .0000   .00000  .000000  .917200  .00000  37.000 .98000 15.0000 .000000  .00000  .00000 0   
  30 皖来安G33 1   1  2 .98000  .0000   .00000  .000000  .823500  .00000  37.000 .98000 15.0000 .000000  .00000  .00000 0   
  31 皖来安G43 1   1  2 .98000  .0000   .00000  .000000  .784000  .00000  37.000 .98000 15.0000 .000000  .00000  .00000 0   
  32 皖来安G53 1   1  2 .98000  .0000   .00000  .000000  .572000  .00000  37.000 .98000 15.0000 .000000  .00000  .00000 0   
  33 皖来安G63 1   1  2 .98000  .0000   .00000  .000000  .808700  .00000  37.000 .98000 15.0000 .000000  .00000  .00000 0   
  34 皖来安G73 1   1  2 .98000  .0000   .00000  .000000  .000000  .00000  37.000 .98000 15.0000 .000000  .00000  .00000 0   
  35 皖来安G83 1   1  2 .98000  .0000   .00000  .000000  .000000  .00000  37.000 .98000 15.0000 .000000  .00000  .00000 0   
  36 皖来安G93 1   1  2 .98000  .0000   .00000  .000000  .000000  .00000  37.000 .98000 15.0000 .000000  .00000  .00000 0   
  37 皖来安GA3 1   1  2 .98000  .0000   .00000  .000000  .695300  .00000  37.000 .98000 15.0000 .000000  .00000  .00000 0   
  38 皖来安GB3 1   1  2 .98000  .0000   .00000  .000000  .527600  .00000  37.000 .98000 15.0000 .000000  .00000  .00000 0   
  39 皖来安GC3 1   1  2 .98000  .0000   .00000  .000000  1.00600  .00000  37.000 .98000 15.0000 .000000  .00000  .00000 0   
  40 皖来安GD3 1   1  2 .98000  .0000   .00000  .000000  4.86700  .00000  37.000 .98000 15.0000 .000000  .00000  .00000 0   
  41 皖来安GE3 1   1  2 .98000  .0000   .00000  .000000  4.86700  .00000  37.000 .98000 15.0000 .000000  .00000  .00000 0   
  42 皖来安GF3 1   1  2 .98000  .0000   .00000  .000000  4.86700  .00000  37.000 .98000 15.0000 .000000  .00000  .00000 0   
  43 皖钱甸_21 1   1  2 .98000  .0000   6.5830  3.09400  83.3300  .00000  13.800 .98000 55.0000 .000000  .00000  .00000 0   
  44 皖滨淮_21 1   1  2 .98000  .0000   7.8790  3.70300  103.500  .00000  13.800 .98000 60.0000 .000000  .00000  .00000 0   
  45 皖洛河_21 1   1  2 .98000  .0000   15.150  7.12100  179.300  .00000  18.000 .98000 160.000 40.0000  .00000  .00000 0   
  46 皖洛河_11 1   1  2 .98000  .0000   13.830  6.49800  251.100  .00000  18.000 .98000 55.0000 40.0000  .00000  .00000 0   
  47 皖炉桥_12 1   1  2 .98000  .0000   9.1490  4.30000  160.000  .00000  20.000 .98000 160.000 .000000  .00000  .00000 0   
  48 皖炉桥_22 1   1  2 .98000  .0000   9.9100  4.65800  199.300  .00000  20.000 .98000 160.000 .000000  .00000  .00000 0   
  49 皖平圩_22 1   1  2 .98000  .0000   20.430  9.60300  408.700  .00000  20.000 .98000 315.000 40.0000  .00000  .00000 0   
  50 皖顾桥#22 1   1  2 .98000  .0000   8.0080  3.76400  196.200  .00000  20.000 .98000 160.000 .000000  .00000  .00000 0   
  51 皖顾桥#12 1   1  2 .98000  .0000   11.010  5.17300  184.700  .00000  20.000 .98000 160.000 .000000  .00000  .00000 0   
  52 皖田厂_62 1   1  2 .98000  .0000   18.090  8.50200  220.700  .00000  20.000 .98000 160.000 20.0000  .00000  .00000 0   
  53 皖居巢_12 1   1  2 .98000  .0000   25.940  12.1900  449.800  .00000  20.000 .98000 160.000 .000000  .00000  .00000 0   
  54 皖合厂_62 1   1  2 .98000  .0000   30.690  14.4300  602.100  .00000  20.000 .98000 75.0000 .000000  .00000  .00000 0   
  55 皖合二_12 1   1  2 .98000  .0000   10.170  4.78200  206.200  .00000  20.000 .98000 175.000 .000000  .00000  .00000 0   
  56 皖合二_22 1   1  2 .98000  .0000   14.050  6.60200  189.000  .00000  20.000 .98000 175.000 .000000  .00000  .00000 0   
  57 皖响蓄_51 1   1  2 .98000  .0000   -.0010  -.00000  .000000  .00000  10.500 .98000 25.0000 12.0000  .00000  .00000 0   
  58 皖响蓄_61 1   1  2 .98000  .0000   -.0010  -.00000  .000000  .00000  10.500 .98000 25.0000 12.0000  .00000  .00000 0   
  59 皖华六_21 1   1  2 .98000  .0000   9.1540  4.30200  84.6500  .00000  13.800 .98000 62.5000 .000000  .00000  .00000 0   
  60 皖安厂_12 1   1  2 .98000  .0000   11.820  5.55700  260.300  .00000  20.000 .98000 160.000 .000000  .00000  .00000 0   
  61 皖马一_12 1   1  2 .98000  .0000   21.670  10.1800  377.800  .00000  20.000 .98000 70.0000 50.0000  .00000  .00000 0   
  62 皖马一_22 1   1  2 .98000  .0000   17.860  8.39500  385.100  .00000  20.000 .98000 70.0000 50.0000  .00000  .00000 0   
  63 皖新桥_22 1   1  2 .98000  .0000   18.410  8.65200  433.100  .00000  20.000 .98000 300.000 -200.00  .00000  .00000 0   
  64 皖新桥_12 1   1  2 .98000  .0000   -.5780  -.27200  384.700  .00000  20.000 .98000 300.000 -200.00  .00000  .00000 0   
  65 皖马二_22 1   1  2 .98000  .0000   15.720  7.38900  196.500  .00000  20.000 .98000 160.000 20.0000  .00000  .00000 0   
  66 皖马二_12 1   1  2 .98000  .0000   14.280  6.71000  178.400  .00000  20.000 .98000 160.000 20.0000  .00000  .00000 0   
  67 皖马二_32 1   1  2 .98000  .0000   12.820  6.02500  179.100  .00000  20.000 .98000 180.000 -70.000  .00000  .00000 0   
  68 皖马二_42 1   1  2 .98000  .0000   9.5490  4.48800  181.100  .00000  20.000 .98000 180.000 -70.000  .00000  .00000 0   
  69 皖塘岔_D1 1   1  2 .98000  .0000   3.0000  1.41000  48.0000  .00000  10.500 .98000 60.0000 10.0000  .00000  .00000 0   
  70 皖塘岔111 1   1  2 .98000  .0000   4.0000  1.88000  90.0000  .00000  10.500 .98000 60.0000 .000000  .00000  .00000 0   
  71 皖塘岔121 1   1  2 .98000  .0000   8.0000  3.76000  141.000  .00000  10.500 .98000 60.0000 .000000  .00000  .00000 0   
  72 皖团洲_12 1   1  2 .98000  .0000   25.350  11.9100  430.300  .00000  22.000 .98000 315.000 50.0000  .00000  .00000 0   
  73 皖团洲_22 1   1  2 .98000  .0000   20.560  9.66400  387.300  .00000  22.000 .98000 315.000 50.0000  .00000  .00000 0   
  74 皖天门_12 1   1  2 .98000  .0000   26.800  12.6000  400.400  .00000  22.000 .98000 250.000 .000000  .00000  .00000 0   
  75 皖天门_22 1   1  2 .98000  .0000   23.450  11.0200  400.400  .00000  22.000 .98000 250.000 .000000  .00000  .00000 0   
  76 皖永丰_12 1   1  2 .98000  .0000   30.170  14.1800  598.400  .00000  20.000 .98000 300.000 50.0000  .00000  .00000 0   
  77 皖铜陵_42 1   1  2 .98000  .0000   16.700  7.84900  190.200  .00000  20.000 .98000 160.000 20.0000  .00000  .00000 0   
  78 皖铜陵_52 1   1  2 .98000  .0000   34.820  16.3700  819.900  .00000  27.000 .98000 500.000 -200.00  .00000  .00000 0   
  79 皖宣城_12 1   1  2 .98000  .0000   23.500  11.0400  369.600  .00000  20.000 .98000 160.000 50.0000  .00000  .00000 0   
  80 皖陈村_11 1   1  2 .98000  .0000   .00000  .000000  .000000  .00000  15.700 .98000 25.0000 .000000  .00000  .00000 0   
  81 皖九华_12 1   1  2 .98000  .0000   20.030  9.41300  301.100  .00000  20.000 .98000 160.000 20.0000  .00000  .00000 0   
  82 皖李楼Ⅱ 1   1  0 1.0000  .0000   29.140  .000000  .000000  .00000  230.00 1.0000 .000000 .000000  .00000  .00000 0   
  83 皖固镇Ⅱ 1   1  0 1.0000  .0000   12.920  -8.2500  .000000  .00000  230.00 1.0000 .000000 .000000  .00000  .00000 0   
  84 皖华兴Ⅰ 1   1  0 1.0000  .0000   -3.000  .000000  .000000  .00000  230.00 1.0000 .000000 .000000  .00000  .00000 0   
  85 皖华兴Ⅱ 1   1  0 1.0000  .0000   8.1310  .000000  .000000  .00000  230.00 1.0000 .000000 .000000  .00000  .00000 0   
  86 皖腰铺Ⅰ 1   1  0 1.0000  .0000   16.970  -2.7900  .000000  .00000  230.00 1.0000 .000000 .000000  .00000  .00000 0   
  87 皖炉桥Ⅱ 1   1  0 1.0000  .0000   117.90  77.4700  .000000  .00000  230.00 1.0000 .000000 .000000  .00000  .00000 0   
  88 皖炉桥Ⅰ 1   1  0 1.0000  .0000   94.910  66.7200  .000000  .00000  230.00 1.0000 .000000 .000000  .00000  .00000 0   
  89 皖水家012 1   1  0 1.0000  .0000   -1.390  -6.0700  .000000  .00000  230.00 1.0000 .000000 .000000  .00000  .00000 0   
  90 皖鑫晟Ⅱ 1   1  0 1.0000  .0000   33.500  7.23600  .000000  .00000  230.00 1.0000 .000000 .000000  .00000  .00000 0   
  91 皖邵岗012 1   1  0 1.0000  .0000   7.3220  -5.6300  .000000  .00000  230.00 1.0000 .000000 .000000  .00000  .00000 0   
  92 皖崔庄Ⅰ 1   1  0 1.0000  .0000   48.960  12.4300  .000000  .00000  230.00 1.0000 .000000 .000000  .00000  .00000 0   
  93 皖六安Ⅰ 1   1  0 1.0000  .0000   32.030  .268000  .000000  .00000  230.00 1.0000 .000000 .000000  .00000  .00000 0   
  94 皖六安Ⅱ 1   1  0 1.0000  .0000   39.660  16.4800  .000000  .00000  230.00 1.0000 .000000 .000000  .00000  .00000 0   
  95 皖挥手Ⅰ 1   1  0 1.0000  .0000   34.300  4.15400  .000000  .00000  230.00 1.0000 .000000 .000000  .00000  .00000 0   
  96 皖挥手Ⅱ 1   1  0 1.0000  .0000   20.370  -.67000  .000000  .00000  230.00 1.0000 .000000 .000000  .00000  .00000 0   
  97 皖春秋Ⅰ 1   1  0 1.0000  .0000   55.480  -2.4100  .000000  .00000  230.00 1.0000 .000000 .000000  .00000  .00000 0   
  98 皖寿州Ⅱ 1   1  0 1.0000  .0000   16.970  -7.0300  .000000  .00000  230.00 1.0000 .000000 .000000  .00000  .00000 0   
  99 皖寿州Ⅰ 1   1  0 1.0000  .0000   23.900  .000000  .000000  .00000  230.00 1.0000 .000000 .000000  .00000  .00000 0   
 100 皖冯井Ⅱ 1   1  0 1.0000  .0000   39.460  7.29100  .000000  .00000  230.00 1.0000 .000000 .000000  .00000  .00000 0   
 101 皖汪墩Ⅱ 1   1  0 1.0000  .0000   39.170  9.58500  .000000  .00000  230.00 1.0000 .000000 .000000  .00000  .00000 0   
 102 皖蓼城Ⅰ 1   1  0 1.0000  .0000   41.000  11.0000  .000000  .00000  230.00 1.0000 .000000 .000000  .00000  .00000 0   
 103 皖蓼城Ⅱ 1   1  0 1.0000  .0000   15.000  .000000  .000000  .00000  230.00 1.0000 .000000 .000000  .00000  .00000 0   
 104 皖文峰Ⅱ 1   1  0 1.0000  .0000   37.740  11.9200  .000000  .00000  230.00 1.0000 .000000 .000000  .00000  .00000 0   
 105 皖红石Ⅰ 1   1  0 1.0000  .0000   -10.20  8.84700  .000000  .00000  230.00 1.0000 .000000 .000000  .00000  .00000 0   
 106 皖马店012 1   1  0 1.0000  .0000   6.9710  .000000  .000000  .00000  230.00 1.0000 .000000 .000000  .00000  .00000 0   
 107 皖安热Ⅱ 1   1  0 1.0000  .0000   28.580  3.35000  .000000  .00000  230.00 1.0000 .000000 .000000  .00000  .00000 0   
 108 皖泉河1A2 1   1  0 1.0000  .0000   5.4770  .920000  .000000  .00000  230.00 1.0000 .000000 .000000  .00000  .00000 0   
 109 皖围屏Ⅱ 1   1  0 1.0000  .0000   28.360  3.46100  .000000  .00000  230.00 1.0000 .000000 .000000  .00000  .00000 0   
 110 皖围屏Ⅰ 1   1  0 1.0000  .0000   45.770  9.60100  .000000  .00000  230.00 1.0000 .000000 .000000  .00000  .00000 0   
 111 皖荷潭Ⅱ 1   1  0 1.0000  .0000   87.920  23.8600  .000000  .00000  230.00 1.0000 .000000 .000000  .00000  .00000 0   
 112 皖阳湖Ⅰ 1   1  0 1.0000  .0000   44.900  13.4000  .000000  .00000  230.00 1.0000 .000000 .000000  .00000  .00000 0   
 113 皖园水Ⅰ 1   1  0 1.0000  .0000   38.400  8.70800  .000000  .00000  230.00 1.0000 .000000 .000000  .00000  .00000 0   
 114 皖刘村722 1   1  0 1.0000  .0000   62.310  12.1900  .000000  .00000  230.00 1.0000 .000000 .000000  .00000  .00000 0   
 115 皖刘村612 1   1  0 1.0000  .0000   50.510  2.74700  .000000  .00000  230.00 1.0000 .000000 .000000  .00000  .00000 0   
 116 皖采石Ⅱ 1   1  0 1.0000  .0000   35.830  -1.1400  .000000  .00000  230.00 1.0000 .000000 .000000  .00000  .00000 0   
 117 皖采石Ⅰ 1   1  0 1.0000  .0000   46.900  -2.4800  .000000  .00000  230.00 1.0000 .000000 .000000  .00000  .00000 0   
 118 皖长龙Ⅱ 1   1  0 1.0000  .0000   69.370  12.6600  .000000  .00000  230.00 1.0000 .000000 .000000  .00000  .00000 0   
 119 皖长龙Ⅰ 1   1  0 1.0000  .0000   48.750  1.47300  .000000  .00000  230.00 1.0000 .000000 .000000  .00000  .00000 0   
 120 皖高炉Ⅱ 1   1  0 1.0000  .0000   30.060  -5.3600  .000000  .00000  230.00 1.0000 .000000 .000000  .00000  .00000 0   
 121 皖高炉Ⅰ 1   1  0 1.0000  .0000   128.60  16.0800  .000000  .00000  230.00 1.0000 .000000 .000000  .00000  .00000 0   
 122 皖临江Ⅰ 1   1  0 1.0000  .0000   23.040  5.35800  .000000  .00000  230.00 1.0000 .000000 .000000  .00000  .00000 0   
 123 皖临江Ⅱ 1   1  0 1.0000  .0000   34.720  16.1800  .000000  .00000  230.00 1.0000 .000000 .000000  .00000  .00000 0   
 124 皖钢轧Ⅰ 1   1  0 1.0000  .0000   101.80  11.1100  .000000  .00000  230.00 1.0000 .000000 .000000  .00000  .00000 0   
 125 皖钢轧Ⅱ 1   1  0 1.0000  .0000   64.940  14.7200  .000000  .00000  230.00 1.0000 .000000 .000000  .00000  .00000 0   
 126 皖恒兴Ⅰ 1   1  0 1.0000  .0000   94.970  10.7800  .000000  .00000  230.00 1.0000 .000000 .000000  .00000  .00000 0   
 127 皖恒兴2B2 1   1  0 1.0000  .0000   26.860  5.82700  .000000  .00000  230.00 1.0000 .000000 .000000  .00000  .00000 0   
 128 皖香泉Ⅱ 1   1  0 1.0000  .0000   42.780  15.4400  .000000  .00000  230.00 1.0000 .000000 .000000  .00000  .00000 0   
 129 皖香泉Ⅰ 1   1  0 1.0000  .0000   52.270  10.7200  .000000  .00000  230.00 1.0000 .000000 .000000  .00000  .00000 0   
 130 皖含山Ⅰ 1   1  0 1.0000  .0000   108.20  19.9200  .000000  .00000  230.00 1.0000 .000000 .000000  .00000  .00000 0   
 131 皖西梁Ⅱ 1   1  0 1.0000  .0000   33.020  2.88000  .000000  .00000  230.00 1.0000 .000000 .000000  .00000  .00000 0   
 132 皖西梁Ⅰ 1   1  0 1.0000  .0000   26.120  7.50200  .000000  .00000  230.00 1.0000 .000000 .000000  .00000  .00000 0   
 133 皖上湖Ⅱ 1   1  0 1.0000  .0000   35.100  -.60300  .000000  .00000  230.00 1.0000 .000000 .000000  .00000  .00000 0   
 134 皖上湖Ⅰ 1   1  0 1.0000  .0000   69.370  21.1600  .000000  .00000  230.00 1.0000 .000000 .000000  .00000  .00000 0   
 135 皖热轧H12 1   1  0 1.0000  .0000   34.640  5.15900  .000000  .00000  230.00 1.0000 .000000 .000000  .00000  .00000 0   
 136 皖塘岔Ⅱ 1   1  0 1.0000  .0000   56.000  22.0000  .000000  .00000  115.00 1.0000 .000000 .000000  .00000  .00000 0   
 137 皖塘岔Ⅰ 1   1  0 1.0000  .0000   78.000  22.0000  .000000  .00000  115.00 1.0000 .000000 .000000  .00000  .00000 0   
 138 皖苏李Ⅰ 1   1  0 1.0000  .0000   57.110  23.8700  .000000  .00000  230.00 1.0000 .000000 .000000  .00000  .00000 0   
 139 皖章塘Ⅱ 1   1  0 1.0000  .0000   20.790  .000000  .000000  .00000  230.00 1.0000 .000000 .000000  .00000  .00000 0   
 140 皖月桥Ⅰ 1   1  0 1.0000  .0000   115.90  45.3000  .000000  .00000  230.00 1.0000 .000000 .000000  .00000  .00000 0   
 141 皖响水Ⅱ 1   1  0 1.0000  .0000   1.8760  .000000  .000000  .00000  525.00 1.0000 .000000 .000000  .00000  .00000 0   
 142 皖响水Ⅰ 1   1  0 1.0000  .0000   4.0000  -1.2500  .000000  .00000  525.00 1.0000 .000000 .000000  .00000  .00000 0   
 143 皖周冲Ⅱ 1   1  0 1.0000  .0000   59.000  5.00000  .000000  .00000  230.00 1.0000 .000000 .000000  .00000  .00000 0   
 144 皖周冲Ⅰ 1   1  0 1.0000  .0000   67.000  10.0000  .000000  .00000  230.00 1.0000 .000000 .000000  .00000  .00000 0   
 145 皖朱村Ⅱ 1   1  0 1.0000  .0000   44.750  6.56600  .000000  .00000  230.00 1.0000 .000000 .000000  .00000  .00000 0   
 146 皖朱村Ⅰ 1   1  0 1.0000  .0000   51.710  10.2500  .000000  .00000  230.00 1.0000 .000000 .000000  .00000  .00000 0   
 147 皖新江Ⅱ 1   1  0 1.0000  .0000   71.600  18.9400  .000000  .00000  230.00 1.0000 .000000 .000000  .00000  .00000 0   
 148 皖新江Ⅰ 1   1  0 1.0000  .0000   59.760  11.5600  .000000  .00000  230.00 1.0000 .000000 .000000  .00000  .00000 0   
 149 皖古圣Ⅱ 1   1  0 1.0000  .0000   29.140  -5.2900  .000000  .00000  230.00 1.0000 .000000 .000000  .00000  .00000 0   
 150 皖古圣Ⅰ 1   1  0 1.0000  .0000   85.670  14.4000  .000000  .00000  230.00 1.0000 .000000 .000000  .00000  .00000 0   
 151 皖滨江Ⅱ 1   1  0 1.0000  .0000   6.0010  .000000  .000000  .00000  230.00 1.0000 .000000 .000000  .00000  .00000 0   
 152 皖滨江Ⅰ 1   1  0 1.0000  .0000   104.90  23.8600  .000000  .00000  230.00 1.0000 .000000 .000000  .00000  .00000 0   
 153 皖顺安Ⅰ 1   1  0 1.0000  .0000   25.800  6.45100  .000000  .00000  230.00 1.0000 .000000 .000000  .00000  .00000 0   
 154 皖董店Ⅰ 1   1  0 1.0000  .0000   49.000  2.00000  .000000  .00000  230.00 1.0000 .000000 .000000  .00000  .00000 0   
 155 皖陈村Ⅱ 1   1  0 1.0000  .0000   18.430  6.65200  .000000  .00000  115.00 1.0000 .000000 .000000  .00000  .00000 0   
 156 皖东津Ⅰ 1   1  0 1.0000  .0000   40.640  -2.6800  .000000  .00000  230.00 1.0000 .000000 .000000  .00000  .00000 0   
 157 皖琴溪Ⅱ 1   1  0 1.0000  .0000   30.000  4.00000  .000000  .00000  230.00 1.0000 .000000 .000000  .00000  .00000 0   
 158 皖昌明Ⅱ 1   1  0 1.0000  .0000   17.420  2.14400  .000000  .00000  230.00 1.0000 .000000 .000000  .00000  .00000 0   
 159 皖昌明Ⅰ 1   1  0 1.0000  .0000   31.900  4.55700  .000000  .00000  230.00 1.0000 .000000 .000000  .00000  .00000 0   
 160 皖南漪Ⅱ 1   1  0 1.0000  .0000   85.260  14.4700  .000000  .00000  230.00 1.0000 .000000 .000000  .00000  .00000 0   
 161 皖雄路Ⅱ 1   1  0 1.0000  .0000   57.000  10.0000  .000000  .00000  230.00 1.0000 .000000 .000000  .00000  .00000 0   
 162 皖枣园Ⅰ 1   1  0 1.0000  .0000   49.000  7.00000  .000000  .00000  230.00 1.0000 .000000 .000000  .00000  .00000 0   
 163 皖桃州Ⅰ 1   1  0 1.0000  .0000   116.70  .000000  .000000  .00000  230.00 1.0000 .000000 .000000  .00000  .00000 0   
 164 皖宁国Ⅰ 1   1  0 1.0000  .0000   67.000  16.0000  .000000  .00000  230.00 1.0000 .000000 .000000  .00000  .00000 0   
 165 皖宁国Ⅱ 1   1  0 1.0000  .0000   58.000  11.0000  .000000  .00000  230.00 1.0000 .000000 .000000  .00000  .00000 0   
 166 皖莲塘Ⅰ 1   1  0 1.0000  .0000   73.000  22.0000  .000000  .00000  230.00 1.0000 .000000 .000000  .00000  .00000 0   
 167 皖梅丰Ⅱ 1   1  0 1.0000  .0000   53.000  5.70800  .000000  .00000  230.00 1.0000 .000000 .000000  .00000  .00000 0   
 168 皖梅丰1A2 1   1  0 1.0000  .0000   18.060  -14.400  .000000  .00000  230.00 1.0000 .000000 .000000  .00000  .00000 0   
 169 皖凤凰Ⅰ 1   1  0 1.0000  .0000   44.620  19.0100  .000000  .00000  230.00 1.0000 .000000 .000000  .00000  .00000 0   
 170 皖凤凰Ⅱ 1   1  0 1.0000  .0000   39.070  -9.7700  .000000  .00000  230.00 1.0000 .000000 .000000  .00000  .00000 0   
 171 皖池州Ⅱ 1   1  0 1.0000  .0000   21.970  -.67000  .000000  .00000  230.00 1.0000 .000000 .000000  .00000  .00000 0   
 172 皖池州Ⅰ 1   1  0 1.0000  .0000   50.100  .200900  .000000  .00000  230.00 1.0000 .000000 .000000  .00000  .00000 0   
 173 皖蓉城Ⅱ 1   1  0 1.0000  .0000   58.560  9.50000  .000000  .00000  230.00 1.0000 .000000 .000000  .00000  .00000 0   
 174 皖菊江Ⅰ 1   1  0 1.0000  .0000   91.820  10.1900  .000000  .00000  230.00 1.0000 .000000 .000000  .00000  .00000 0   
 175 皖观牛Ⅱ 1   1  0 1.0000  .0000   46.200  -9.2400  .000000  .00000  230.00 1.0000 .000000 .000000  .00000  .00000 0   
 176 皖双龙Ⅱ 1   1  0 1.0000  .0000   41.080  3.93000  .000000  .00000  230.00 1.0000 .000000 .000000  .00000  .00000 0   
 177 皖枫岭Ⅱ 1   1  0 1.0000  .0000   31.730  6.69800  .000000  .00000  230.00 1.0000 .000000 .000000  .00000  .00000 0   
 178 皖灯塔Ⅰ 1   1  0 1.0000  .0000   143.50  41.9700  .000000  .00000  230.00 1.0000 .000000 .000000  .00000  .00000 0   
 179 皖万安Ⅱ 1   1  0 1.0000  .0000   43.300  2.36700  .000000  .00000  230.00 1.0000 .000000 .000000  .00000  .00000 0   
 180 皖万安Ⅰ 1   1  0 1.0000  .0000   43.300  9.88500  .000000  .00000  230.00 1.0000 .000000 .000000  .00000  .00000 0   
 181 皖芳村Ⅱ 1   1  0 1.0000  .0000   31.780  1.58700  .000000  .00000  230.00 1.0000 .000000 .000000  .00000  .00000 0   
 182 皖潜口Ⅱ 1   1  0 1.0000  .0000   68.220  .772600  .000000  .00000  230.00 1.0000 .000000 .000000  .00000  .00000 0   
 183 皖潜口Ⅰ 1   1  0 1.0000  .0000   55.940  2.17900  .000000  .00000  230.00 1.0000 .000000 .000000  .00000  .00000 0   
 184 皖纵楼B22 1   1  0 1.0000  .0000   .00000  .000000  .000000  .00000  230.00 1.0000 .000000 .000000  .00000  .00000 0   
 185 皖纵楼B12 1   1  0 1.0000  .0000   .00000  .000000  .000000  .00000  230.00 1.0000 .000000 .000000  .00000  .00000 0   
 186 皖纵楼Ⅰ 1   1  0 1.0000  .0000   .00000  .000000  .000000  .00000  230.00 1.0000 .000000 .000000  .00000  .00000 0   
 187 皖纵楼Ⅱ 1   1  0 1.0000  .0000   .00000  .000000  .000000  .00000  230.00 1.0000 .000000 .000000  .00000  .00000 0   
 188 皖杨柳B12 1   1  0 1.0000  .0000   .00000  .000000  .000000  .00000  230.00 1.0000 .000000 .000000  .00000  .00000 0   
 189 皖杨柳B22 1   1  0 1.0000  .0000   .00000  .000000  .000000  .00000  230.00 1.0000 .000000 .000000  .00000  .00000 0   
 190 皖杨柳Ⅰ 1   1  0 1.0000  .0000   .00000  .000000  .000000  .00000  230.00 1.0000 .000000 .000000  .00000  .00000 0   
 191 皖杨柳Ⅱ 1   1  0 1.0000  .0000   .00000  .000000  .000000  .00000  230.00 1.0000 .000000 .000000  .00000  .00000 0   
 192 皖淮二Ⅰ 1   1  0 1.0000  .0000   .00000  .000000  .000000  .00000  230.00 1.0000 .000000 .000000  .00000  .00000 0   
 193 皖淮二Ⅱ 1   1  0 1.0000  .0000   .00000  .000000  .000000  .00000  230.00 1.0000 .000000 .000000  .00000  .00000 0   
 194 皖淮北Ⅰ 1   1  0 1.0000  .0000   .00000  .000000  .000000  .00000  230.00 1.0000 .000000 .000000  .00000  .00000 0   
 195 皖淮北PC2 1   1  0 1.0000  .0000   .00000  .000000  .000000  .00000  230.00 1.0000 .000000 .000000  .00000  .00000 0   
 196 皖淮北Ⅱ 1   1  0 1.0000  .0000   .00000  .000000  .000000  .00000  230.00 1.0000 .000000 .000000  .00000  .00000 0   
 197 皖濉溪B12 1   1  0 1.0000  .0000   .00000  .000000  .000000  .00000  230.00 1.0000 .000000 .000000  .00000  .00000 0   
 198 皖濉溪_13 1   1  0 1.0000  .0000   .00000  .000000  .000000  .00000  36.000 1.0000 .000000 .000000  .00000  -2.400 0   
 199 皖濉溪1A2 1   1  0 1.0000  .0000   .00000  .000000  .000000  .00000  230.00 1.0000 .000000 .000000  .00000  .00000 0   
 200 皖濉溪2B2 1   1  0 1.0000  .0000   .00000  .000000  .000000  .00000  230.00 1.0000 .000000 .000000  .00000  .00000 0   
 201 皖濉溪1B2 1   1  0 1.0000  .0000   .00000  .000000  .000000  .00000  230.00 1.0000 .000000 .000000  .00000  .00000 0   
 202 皖濉溪2A2 1   1  0 1.0000  .0000   .00000  .000000  .000000  .00000  230.00 1.0000 .000000 .000000  .00000  .00000 0   
 203 皖濉溪Ⅰ 1   1  0 1.0000  .0000   .00000  .000000  .000000  .00000  525.00 1.0000 .000000 .000000  .00000  .00000 0   
 204 皖濉溪Ⅱ 1   1  0 1.0000  .0000   .00000  .000000  .000000  .00000  525.00 1.0000 .000000 .000000  .00000  .00000 0   
 205 皖濉溪135 1   1  0 1.0000  .0000   .00000  .000000  .000000  .00000  525.00 1.0000 .000000 .000000  .00000  .00000 0   
 206 皖濉溪535 1   1  0 1.0000  .0000   .00000  .000000  .000000  .00000  525.00 1.0000 .000000 .000000  .00000  .00000 0   
 207 皖濉溪525 1   1  0 1.0000  .0000   .00000  .000000  .000000  .00000  525.00 1.0000 .000000 .000000  .00000  .00000 0   
 208 皖濉溪635 1   1  0 1.0000  .0000   .00000  .000000  .000000  .00000  525.00 1.0000 .000000 .000000  .00000  .00000 0   
 209 皖濉溪625 1   1  0 1.0000  .0000   .00000  .000000  .000000  .00000  525.00 1.0000 .000000 .000000  .00000  .00000 0   
 210 皖五里B22 1   1  0 1.0000  .0000   .00000  .000000  .000000  .00000  230.00 1.0000 .000000 .000000  .00000  .00000 0   
 211 皖五里B12 1   1  0 1.0000  .0000   .00000  .000000  .000000  .00000  230.00 1.0000 .000000 .000000  .00000  .00000 0   
 212 皖五里Ⅰ 1   1  0 1.0000  .0000   .00000  .000000  .000000  .00000  230.00 1.0000 .000000 .000000  .00000  .00000 0   
 213 皖五里Ⅱ 1   1  0 1.0000  .0000   .00000  .000000  .000000  .00000  230.00 1.0000 .000000 .000000  .00000  .00000 0   
 214 皖虎山Ⅰ 1   1  0 1.0000  .0000   .00000  .000000  .000000  .00000  230.00 1.0000 .000000 .000000  .00000  .00000 0   
 215 皖虎山Ⅱ 1   1  0 1.0000  .0000   .00000  .000000  .000000  .00000  230.00 1.0000 .000000 .000000  .00000  .00000 0   
 216 皖显通B12 1   1  0 1.0000  .0000   .00000  .000000  .000000  .00000  230.00 1.0000 .000000 .000000  .00000  .00000 0   
 217 皖显通B22 1   1  0 1.0000  .0000   .00000  .000000  .000000  .00000  230.00 1.0000 .000000 .000000  .00000  .00000 0   
 218 皖显通Ⅱ 1   1  0 1.0000  .0000   .00000  .000000  .000000  .00000  230.00 1.0000 .000000 .000000  .00000  .00000 0   
 219 皖显通Ⅰ 1   1  0 1.0000  .0000   .00000  .000000  .000000  .00000  230.00 1.0000 .000000 .000000  .00000  .00000 0   
 220 皖南坪B12 1   1  0 1.0000  .0000   .00000  .000000  .000000  .00000  230.00 1.0000 .000000 .000000  .00000  .00000 0   
 221 皖南坪B22 1   1  0 1.0000  .0000   .00000  .000000  .000000  .00000  230.00 1.0000 .000000 .000000  .00000  .00000 0   
 222 皖南坪Ⅱ 1   1  0 1.0000  .0000   .00000  .000000  .000000  .00000  230.00 1.0000 .000000 .000000  .00000  .00000 0   
 223 皖南坪Ⅰ 1   1  0 1.0000  .0000   .00000  .000000  .000000  .00000  230.00 1.0000 .000000 .000000  .00000  .00000 0   
 224 皖临涣Ⅱ 1   1  0 1.0000  .0000   .00000  .000000  .000000  .00000  230.00 1.0000 .000000 .000000  .00000  .00000 0   
 225 皖临涣Ⅰ 1   1  0 1.0000  .0000   .00000  .000000  .000000  .00000  230.00 1.0000 .000000 .000000  .00000  .00000 0   
 226 皖谷岭B12 1   1  0 1.0000  .0000   .00000  .000000  .000000  .00000  230.00 1.0000 .000000 .000000  .00000  .00000 0   
 227 皖谷岭Ⅱ 1   1  0 1.0000  .0000   .00000  .000000  .000000  .00000  230.00 1.0000 .000000 .000000  .00000  .00000 0   
 228 皖谷岭Ⅰ 1   1  0 1.0000  .0000   .00000  .000000  .000000  .00000  230.00 1.0000 .000000 .000000  .00000  .00000 0   
 229 皖虹乡B12 1   1  0 1.0000  .0000   .00000  .000000  .000000  .00000  230.00 1.0000 .000000 .000000  .00000  .00000 0   
 230 皖虹乡Ⅱ 1   1  0 1.0000  .0000   .00000  .000000  .000000  .00000  230.00 1.0000 .000000 .000000  .00000  .00000 0   
 231 皖桃沟_12 1   1  0 1.0000  .0000   .00000  -3.3500  .000000  .00000  230.00 1.0000 .000000 .000000  .00000  .00000 0   
 232 皖桃沟_22 1   1  0 1.0000  .0000   .00000  -20.000  .000000  .00000  230.00 1.0000 .000000 .000000  .00000  .00000 0   
 233 皖甬桥2A2 1   1  0 1.0000  .0000   .00000  .000000  .000000  .00000  230.00 1.0000 .000000 .000000  .00000  .00000 0   
 234 皖甬桥1A2 1   1  0 1.0000  .0000   .00000  .000000  .000000  .00000  230.00 1.0000 .000000 .000000  .00000  .00000 0   
 235 皖甬桥2B2 1   1  0 1.0000  .0000   .00000  .000000  .000000  .00000  230.00 1.0000 .000000 .000000  .00000  .00000 0   
 236 皖甬桥1B2 1   1  0 1.0000  .0000   .00000  .000000  .000000  .00000  230.00 1.0000 .000000 .000000  .00000  .00000 0   
 237 皖马井B22 1   1  0 1.0000  .0000   .00000  .000000  .000000  .00000  230.00 1.0000 .000000 .000000  .00000  .00000 0   
 238 皖马井B12 1   1  0 1.0000  .0000   .00000  .000000  .000000  .00000  230.00 1.0000 .000000 .000000  .00000  .00000 0   
 239 皖马井Ⅱ 1   1  0 1.0000  .0000   .00000  .000000  .000000  .00000  230.00 1.0000 .000000 .000000  .00000  .00000 0   
 240 皖马井Ⅰ 1   1  0 1.0000  .0000   .00000  .000000  .000000  .00000  230.00 1.0000 .000000 .000000  .00000  .00000 0   
 241 皖双庆B12 1   1  0 1.0000  .0000   .00000  .000000  .000000  .00000  230.00 1.0000 .000000 .000000  .00000  .00000 0   
 242 皖双庆Ⅱ 1   1  0 1.0000  .0000   .00000  .000000  .000000  .00000  230.00 1.0000 .000000 .000000  .00000  .00000 0   
 243 皖双庆Ⅰ 1   1  0 1.0000  .0000   .00000  .000000  .000000  .00000  230.00 1.0000 .000000 .000000  .00000  .00000 0   
 244 皖沱河B22 1   1  0 1.0000  .0000   .00000  .000000  .000000  .00000  230.00 1.0000 .000000 .000000  .00000  .00000 0   
 245 皖沱河B12 1   1  0 1.0000  .0000   .00000  .000000  .000000  .00000  230.00 1.0000 .000000 .000000  .00000  .00000 0   
 246 皖沱河Ⅱ 1   1  0 1.0000  .0000   .00000  .000000  .000000  .00000  230.00 1.0000 .000000 .000000  .00000  .00000 0   