 20100310 db                   100.0  2010 1                    db_sedata
BUS DATA FOLLOWS                    879 ITEMS
   1 阿城变.220.1 1   1  0 1.0530  0.000   86.974  27.6004  0.00000  0.0000  220.00 0.0000 0.00000 0.00000  0.0000  0.0000 0   
   2 阿拉坦变.60. 1   1  0 .91366  0.000   .54090  17.5894  0.00000  0.0000  66.000 0.0000 0.00000 0.00000  0.0000  -0.623 0   
   3 阿拉坦变.220 1   1  0 1.0287  0.000   0.0000  0.00000  0.00000  0.0000  220.00 0.0000 0.00000 0.00000  0.0000  0.0000 0   
   4 阿拉坦变.500 1   1  0 1.0664  0.000   0.0000  0.00000  0.00000  0.0000  500.00 0.0000 0.00000 0.00000  0.0000  -3.265 0   
   5 阿南变.220.1 1   1  0 1.0547  0.000   40.298  13.5980  0.00000  0.0000  220.00 0.0000 0.00000 0.00000  0.0000  0.0000 0   
   6 鞍山电厂.220 1   1  0 1.0109  0.000   128.88  39.5107  0.00000  0.0000  220.00 0.0000 0.00000 0.00000  0.0000  0.0000 0   
   7 鞍山电厂.220 1   1  0 1.0150  0.000   258.71  44.6270  0.00000  0.0000  220.00 0.0000 0.00000 0.00000  0.0000  0.0000 0   
   8 鞍山变.60.1  1   1  0 .93011  0.000   -1.532  -5.6634  0.00000  0.0000  66.000 0.0000 0.00000 0.00000  0.0000  0.0000 0   
   9 鞍山变.60.2  1   1  0 .93054  0.000   -3.024  -6.6743  0.00000  0.0000  66.000 0.0000 0.00000 0.00000  0.0000  0.0000 0   
  10 鞍山变.220.1 1   1  0 1.0175  0.000   0.0000  0.00000  0.00000  0.0000  220.00 0.0000 0.00000 0.00000  0.0000  0.0000 0   
  11 鞍山变.500.1 1   1  0 1.0430  0.000   0.0000  0.00000  0.00000  0.0000  500.00 0.0000 0.00000 0.00000  0.0000  0.0000 0   
  12 巴林变.60.1  1   1  0 .86382  0.000   .71917  49.8025  0.00000  0.0000  66.000 0.0000 0.00000 0.00000  0.0000  -1.126 0   
  13 巴林变.60.2  1   1  0 .91703  0.000   .22736  16.6936  0.00000  0.0000  66.000 0.0000 0.00000 0.00000  0.0000  -0.609 0   
  14 巴林变.500.1 1   1  0 1.0800  0.000   0.0000  0.00000  0.00000  0.0000  500.00 0.0000 0.00000 0.00000  0.0000  -2.000 0   
  15 北安变.220.1 1   1  0 1.0708  0.000   -34.43  21.6813  0.00000  0.0000  220.00 0.0000 0.00000 0.00000  0.0000  0.0000 0   
  17 白城变.220.1 1   1  0 1.0631  0.000   -10.50  4.89928  0.00000  0.0000  220.00 0.0000 0.00000 0.00000  0.0000  0.0000 0   
  16 巴彦变.220.1 1   1  0 1.0755  0.000   -13.63  4.50797  0.00000  0.0000  220.00 0.0000 0.00000 0.00000  0.0000  0.0000 0   
  19 宾发变.220.1 1   1  0 1.0595  0.000   43.270  12.0264  0.00000  0.0000  220.00 0.0000 0.00000 0.00000  0.0000  0.0000 0   
  18 北架风电变.2 1   1  0 1.0565  0.000   -14.54  -1.0550  0.00000  0.0000  220.00 0.0000 0.00000 0.00000  0.0000  0.0000 0   
  21 滨海变.220.1 1   1  0 1.0263  0.000   52.583  -3.2893  0.00000  0.0000  220.00 0.0000 0.00000 0.00000  0.0000  0.0000 0   
  20 北钢变.220.1 1   1  0 1.0973  0.000   3.7761  .809970  0.00000  0.0000  220.00 0.0000 0.00000 0.00000  0.0000  0.0000 0   
  23 包家变.60.1  1   1  0 .92080  0.000   0.0000  0.00000  0.00000  0.0000  66.000 0.0000 0.00000 0.00000  0.0000  -2.400 0   
  22 北石洞变.220 1   1  0 1.0140  0.000   60.156  -11.268  0.00000  0.0000  220.00 0.0000 0.00000 0.00000  0.0000  0.0000 0   
  25 包家变.500.1 1   1  0 1.0733  0.000   0.0000  0.00000  0.00000  0.0000  500.00 0.0000 0.00000 0.00000  0.0000  -1.088 0   
  24 包家变.220.1 1   1  0 1.0623  0.000   0.0000  0.00000  0.00000  0.0000  220.00 0.0000 0.00000 0.00000  0.0000  0.0000 0   
  27 宝龙山变.220 1   1  0 1.0489  0.000   18.989  8.87434  0.00000  0.0000  220.00 0.0000 0.00000 0.00000  0.0000  0.0000 0   
  26 北郊变.220.1 1   1  0 1.0566  0.000   163.15  52.2101  0.00000  0.0000  220.00 0.0000 0.00000 0.00000  0.0000  0.0000 0   
  29 北宁变.60.2  1   1  0 .92407  0.000   0.0254  7.37066  0.00000  0.0000  66.000 0.0000 0.00000 0.00000  0.0000  -1.200 0   
  28 北宁变.60.1  1   1  0 .92399  0.000   .74966  7.51950  0.00000  0.0000  66.000 0.0000 0.00000 0.00000  0.0000  -1.200 0   
  31 北宁变.500.1 1   1  0 1.0545  0.000   0.0000  0.00000  0.00000  0.0000  500.00 0.0000 0.00000 0.00000  0.0000  0.0000 0   
  30 北宁变.220.1 1   1  0 1.0524  0.000   0.0000  0.00000  0.00000  0.0000  220.00 0.0000 0.00000 0.00000  0.0000  0.0000 0   
  34 渤海变.500.1 1   1  0 1.0480  0.000   0.0000  0.00000  0.00000  0.0000  500.00 0.0000 0.00000 0.00000  0.0000  0.0000 0   
  35 北票变.220.1 1   1  0 1.0419  0.000   72.839  22.4997  0.00000  0.0000  220.00 0.0000 0.00000 0.00000  0.0000  0.0000 0   
  33 渤海变.220.1 1   1  0 1.0263  0.000   0.0000  0.00000  0.00000  0.0000  220.00 0.0000 0.00000 0.00000  0.0000  0.0000 0   
  38 北沙变.220.1 1   1  0 1.0350  0.000   -23.35  5.06773  0.00000  0.0000  220.00 0.0000 0.00000 0.00000  0.0000  0.0000 0   
  39 白山水电厂.2 1   1  0 1.0738  0.000   .81153  7.08235  0.00000  0.0000  220.00 0.0000 0.00000 0.00000  0.0000  0.0000 0   
  36 北清河风电变 1   1  0 1.0262  0.000   -48.72  20.1689  0.00000  0.0000  220.00 0.0000 0.00000 0.00000  0.0000  0.0000 0   
  37 白山热电厂.2 1   1  0 1.0317  0.000   1.4984  .995670  0.00000  0.0000  220.00 0.0000 0.00000 0.00000  0.0000  0.0000 0   
  42 北台变.220.1 1   1  0 1.0023  0.000   219.66  62.1617  0.00000  0.0000  220.00 0.0000 0.00000 0.00000  0.0000  0.0000 0   
  43 本溪变.220.1 1   1  0 1.0109  0.000   139.77  18.3262  0.00000  0.0000  220.00 0.0000 0.00000 0.00000  0.0000  0.0000 0   
  40 白山水电厂.2 1   1  0 1.0689  0.000   2.3705  35.6984  0.00000  0.0000  220.00 0.0000 0.00000 0.00000  0.0000  0.0000 0   
  41 白山变.220.1 1   1  0 1.0376  0.000   29.242  12.7438  0.00000  0.0000  220.00 0.0000 0.00000 0.00000  0.0000  0.0000 0   
  46 白玉变.220.1 1   1  0 1.0079  0.000   95.647  26.5709  0.00000  0.0000  220.00 0.0000 0.00000 0.00000  0.0000  0.0000 0   
  47 宾州变.220.1 1   1  0 1.0617  0.000   10.398  1.12982  0.00000  0.0000  220.00 0.0000 0.00000 0.00000  0.0000  0.0000 0   
  44 白云变.220.1 1   1  0 1.0639  0.000   14.593  1.00630  0.00000  0.0000  220.00 0.0000 0.00000 0.00000  0.0000  0.0000 0   
  45 白音华火电厂 1   1  0 1.0724  0.000   .67546  15.5817  0.00000  0.0000  500.00 0.0000 0.00000 0.00000  0.0000  -1.500 0   
  51 长白变.220.1 1   1  0 1.0495  0.000   .19048  .444014  0.00000  0.0000  220.00 0.0000 0.00000 0.00000  0.0000  0.0000 0   
  50 城昂堡变.220 1   1  0 1.0155  0.000   140.01  36.4292  0.00000  0.0000  220.00 0.0000 0.00000 0.00000  0.0000  0.0000 0   
  49 曹屯变.220.1 1   1  0 1.0134  0.000   127.35  18.3523  0.00000  0.0000  220.00 0.0000 0.00000 0.00000  0.0000  0.0000 0   
  48 长四热电厂.2 1   1  0 1.0645  0.000   4.4433  1.98073  0.00000  0.0000  220.00 0.0000 0.00000 0.00000  0.0000  0.0000 0   
  55 长甸水电厂.2 1   1  0 1.0461  0.000   0.0000  0.00000  0.00000  0.0000  220.00 0.0000 0.00000 0.00000  0.0000  0.0000 0   
  54 达里变.220.1 1   1  0 1.0717  0.000   -49.22  14.0905  0.00000  0.0000  220.00 0.0000 0.00000 0.00000  0.0000  0.0000 0   
  53 长春变.220.1 1   1  0 1.0663  0.000   99.676  22.8790  0.00000  0.0000  220.00 0.0000 0.00000 0.00000  0.0000  0.0000 0   
  52 长三热电厂.2 1   1  0 1.0695  0.000   14.350  15.6094  0.00000  0.0000  220.00 0.0000 0.00000 0.00000  0.0000  0.0000 0   
  59 程家变.60.1  1   1  0 .90393  0.000   0.0000  0.00000  0.00000  0.0000  66.000 0.0000 0.00000 0.00000  0.0000  -0.587 0   
  58 城乡变.220.1 1   1  0 1.0853  0.000   56.993  1.65143  0.00000  0.0000  220.00 0.0000 0.00000 0.00000  0.0000  0.0000 0   
  57 草河口变.220 1   1  0 1.0271  0.000   53.807  14.0153  0.00000  0.0000  220.00 0.0000 0.00000 0.00000  0.0000  0.0000 0   
  56 赤峰变.220.1 1   1  0 1.0585  0.000   141.58  89.0652  0.00000  0.0000  220.00 0.0000 0.00000 0.00000  0.0000  0.0000 0   
  63 长岭变.220.1 1   1  0 1.0563  0.000   23.926  10.6919  0.00000  0.0000  220.00 0.0000 0.00000 0.00000  0.0000  0.0000 0   
  62 春蕾变.220.1 1   1  0 1.0797  0.000   129.88  35.4750  0.00000  0.0000  220.00 0.0000 0.00000 0.00000  0.0000  0.0000 0   
  61 程家变.500.1 1   1  0 1.0517  0.000   0.0000  0.00000  0.00000  0.0000  500.00 0.0000 0.00000 0.00000  0.0000  0.0000 0   
  60 程家变.220.1 1   1  0 1.0137  0.000   0.0000  0.00000  0.00000  0.0000  220.00 0.0000 0.00000 0.00000  0.0000  0.0000 0   
  68 长山岛变.220 1   1  0 1.0122  0.000   83.770  18.0003  0.00000  0.0000  220.00 0.0000 0.00000 0.00000  0.0000  0.0000 0   
  69 长山电厂.220 1   1  0 1.0521  0.000   75.165  17.3837  0.00000  0.0000  220.00 0.0000 0.00000 0.00000  0.0000  0.0000 0   
  70 岔山变.220.1 1   1  0 1.0150  0.000   40.936  10.8067  0.00000  0.0000  220.00 0.0000 0.00000 0.00000  0.0000  0.0000 0   
  71 昌图变.220.1 1   1  0 1.0643  0.000   -153.7  40.5395  0.00000  0.0000  220.00 0.0000 0.00000 0.00000  0.0000  0.0000 0   
  64 城南变.220.1 1   1  0 1.0680  0.000   59.999  13.8738  0.00000  0.0000  220.00 0.0000 0.00000 0.00000  0.0000  0.0000 0   
  65 赤峰热电厂.2 1   1  0 1.0590  0.000   0.0000  0.00000  0.00000  0.0000  220.00 0.0000 0.00000 0.00000  0.0000  0.0000 0   
  66 赤峰热电厂.2 1   1  0 1.0589  0.000   0.0000  0.00000  0.00000  0.0000  220.00 0.0000 0.00000 0.00000  0.0000  0.0000 0   
  67 长山变.220.1 1   1  0 1.0522  0.000   7.8388  8.67254  0.00000  0.0000  220.00 0.0000 0.00000 0.00000  0.0000  0.0000 0   
  76 大板变.220.1 1   1  0 1.0792  0.000   19.095  .149626  0.00000  0.0000  220.00 0.0000 0.00000 0.00000  0.0000  0.0000 0   
  77 大安变.220.1 1   1  0 1.0531  0.000   44.774  14.0944  0.00000  0.0000  220.00 0.0000 0.00000 0.00000  0.0000  0.0000 0   
  78 东鞍山变.220 1   1  0 1.0155  0.000   202.89  -50.718  0.00000  0.0000  220.00 0.0000 0.00000 0.00000  0.0000  0.0000 0   
  79 调兵山变.220 1   1  0 1.0717  0.000   -42.76  4.98377  0.00000  0.0000  220.00 0.0000 0.00000 0.00000  0.0000  0.0000 0   
  72 城西变.220.1 1   1  0 1.0653  0.000   51.611  16.4976  0.00000  0.0000  220.00 0.0000 0.00000 0.00000  0.0000  0.0000 0   
  73 赤西郊变.220 1   1  0 1.0592  0.000   24.919  11.1294  0.00000  0.0000  220.00 0.0000 0.00000 0.00000  0.0000  0.0000 0   
  74 朝阳电厂.220 1   1  0 1.0478  0.000   0.0000  0.00000  0.00000  0.0000  220.00 0.0000 0.00000 0.00000  0.0000  0.0000 0   
  75 城园变.220.1 1   1  0 1.0275  0.000   4.6400  15.7902  0.00000  0.0000  220.00 0.0000 0.00000 0.00000  0.0000  0.0000 0   
  85 丹东变.220.1 1   1  0 1.0465  0.000   86.889  17.4200  0.00000  0.0000  220.00 0.0000 0.00000 0.00000  0.0000  0.0000 0   
  84 丹东电厂.220 1   1  0 1.0514  0.000   0.0000  0.00000  0.00000  0.0000  220.00 0.0000 0.00000 0.00000  0.0000  0.0000 0   
  87 大岗风电变.2 1   1  0 1.0554  0.000   -47.41  10.9045  0.00000  0.0000  220.00 0.0000 0.00000 0.00000  0.0000  0.0000 0   
  86 德惠变.220.1 1   1  0 1.0507  0.000   81.010  13.8180  0.00000  0.0000  220.00 0.0000 0.00000 0.00000  0.0000  0.0000 0   
  81 东辛庄变.220 1   1  0 1.0595  0.000   4.0811  -8.2168  0.00000  0.0000  220.00 0.0000 0.00000 0.00000  0.0000  0.0000 0   
  80 大成变.220.1 1   1  0 1.0411  0.000   129.06  51.4454  0.00000  0.0000  220.00 0.0000 0.00000 0.00000  0.0000  0.0000 0   
  83 丹东北变.500 1   1  0 1.0613  0.000   0.0000  0.00000  0.00000  0.0000  500.00 0.0000 0.00000 0.00000  0.0000  0.0000 0   
  82 丹东北变.220 1   1  0 1.0490  0.000   0.0000  0.00000  0.00000  0.0000  220.00 0.0000 0.00000 0.00000  0.0000  0.0000 0   
  93 达连河变.220 1   1  0 1.0614  0.000   32.734  8.94557  0.00000  0.0000  220.00 0.0000 0.00000 0.00000  0.0000  0.0000 0   
  92 董家变.500.1 1   1  0 1.0588  0.000   0.0000  0.00000  0.00000  0.0000  500.00 0.0000 0.00000 0.00000  0.0000  -4.950 0   
  95 大连变.220.1 1   1  0 1.0167  0.000   123.16  -2.2515  0.00000  0.0000  220.00 0.0000 0.00000 0.00000  0.0000  0.0000 0   
  94 代力吉变.220 1   1  0 1.0596  0.000   -138.0  0.02937  0.00000  0.0000  220.00 0.0000 0.00000 0.00000  0.0000  0.0000 0   
  89 敦化变.220.1 1   1  0 1.0581  0.000   25.803  12.3413  0.00000  0.0000  220.00 0.0000 0.00000 0.00000  0.0000  0.0000 0   
  88 大黑山变.220 1   1  0 1.0697  0.000   -47.71  16.8892  0.00000  0.0000  220.00 0.0000 0.00000 0.00000  0.0000  0.0000 0   
  91 董家变.220.1 1   1  0 1.0691  0.000   0.0000  0.00000  0.00000  0.0000  220.00 0.0000 0.00000 0.00000  0.0000  0.0000 0   
  90 代家沟变.220 1   1  0 1.0167  0.000   330.03  76.3789  0.00000  0.0000  220.00 0.0000 0.00000 0.00000  0.0000  0.0000 0   
 102 大庆变.60.1  1   1  0 .93725  0.000   -0.171  21.7152  0.00000  0.0000  66.000 0.0000 0.00000 0.00000  0.0000  -1.800 0   
 103 大庆变.220.1 1   1  0 1.0819  0.000   0.0000  0.00000  0.00000  0.0000  220.00 0.0000 0.00000 0.00000  0.0000  0.0000 0   
 100 大庆电厂.220 1   1  0 1.0614  0.000   0.0000  0.00000  0.00000  0.0000  220.00 0.0000 0.00000 0.00000  0.0000  0.0000 0   
 101 大庆变.35.1  1   1  0 .99876  0.000   -0.204  -7.8946  0.00000  0.0000  35.000 0.0000 0.00000 0.00000  0.0000  -1.800 0   
  98 东梁变.220.1 1   1  0 1.0693  0.000   62.570  21.4537  0.00000  0.0000  220.00 0.0000 0.00000 0.00000  0.0000  0.0000 0   
  99 东山变.220.1 1   1  0 1.0660  0.000   -102.3  5.54148  0.00000  0.0000  220.00 0.0000 0.00000 0.00000  0.0000  0.0000 0   
  96 调兵山煤矸石 1   1  0 1.0796  0.000   0.0000  0.00000  0.00000  0.0000  220.00 0.0000 0.00000 0.00000  0.0000  0.0000 0   
  97 东郊变.220.1 1   1  0 1.0609  0.000   155.38  84.2798  0.00000  0.0000  220.00 0.0000 0.00000 0.00000  0.0000  0.0000 0   
 110 大连湾电厂.2 1   1  0 1.0193  0.000   0.0000  0.00000  0.00000  0.0000  220.00 0.0000 0.00000 0.00000  0.0000  0.0000 0   
 111 二道江电厂.2 1   1  0 1.0379  0.000   0.0000  0.00000  0.00000  0.0000  220.00 0.0000 0.00000 0.00000  0.0000  0.0000 0   
 108 灯塔变.220.1 1   1  0 1.0025  0.000   76.298  44.2026  0.00000  0.0000  220.00 0.0000 0.00000 0.00000  0.0000  0.0000 0   
 109 多宝山变.220 1   1  0 1.0663  0.000   13.322  25.4288  0.00000  0.0000  220.00 0.0000 0.00000 0.00000  0.0000  0.0000 0   
 106 大三电厂.220 1   1  0 1.0196  0.000   69.627  -4.1203  0.00000  0.0000  220.00 0.0000 0.00000 0.00000  0.0000  0.0000 0   
 107 大石桥变.220 1   1  0 1.0141  0.000   125.74  24.9430  0.00000  0.0000  220.00 0.0000 0.00000 0.00000  0.0000  0.0000 0   
 104 大庆变.500.1 1   1  0 1.0783  0.000   0.0000  0.00000  0.00000  0.0000  500.00 0.0000 0.00000 0.00000  0.0000  -1.500 0   
 105 东胜变.220.1 1   1  0 1.0442  0.000   64.924  .967672  0.00000  0.0000  220.00 0.0000 0.00000 0.00000  0.0000  0.0000 0   
 119 法库变.220.1 1   1  0 1.0755  0.000   -13.38  22.9193  0.00000  0.0000  220.00 0.0000 0.00000 0.00000  0.0000  0.0000 0   
 118 富锦变.220.1 1   1  0 1.0656  0.000   -32.24  4.88993  0.00000  0.0000  220.00 0.0000 0.00000 0.00000  0.0000  0.0000 0   
 117 富家变.220.1 1   1  0 1.0024  0.000   236.88  80.6638  0.00000  0.0000  220.00 0.0000 0.00000 0.00000  0.0000  0.0000 0   
 116 凤城变.220.1 1   1  0 1.0401  0.000   142.32  44.3141  0.00000  0.0000  220.00 0.0000 0.00000 0.00000  0.0000  0.0000 0   
 115 阜北风电变.2 1   1  0 1.0816  0.000   -170.9  -0.5243  0.00000  0.0000  220.00 0.0000 0.00000 0.00000  0.0000  0.0000 0   
 114 范家变.220.1 1   1  0 1.0246  0.000   233.88  58.4665  0.00000  0.0000  220.00 0.0000 0.00000 0.00000  0.0000  0.0000 0   
 113 长二热电厂.2 1   1  0 1.0688  0.000   1.3746  2.34270  0.00000  0.0000  220.00 0.0000 0.00000 0.00000  0.0000  0.0000 0   
 112 长二热电厂.2 1   1  0 1.0640  0.000   .88935  2.82239  0.00000  0.0000  220.00 0.0000 0.00000 0.00000  0.0000  0.0000 0   
 127 冯屯变.500.1 1   1  0 1.0878  0.000   0.0000  0.00000  0.00000  0.0000  500.00 0.0000 0.00000 0.00000  0.0000  0.0000 0   
 126 冯屯变.220.1 1   1  0 1.1002  0.000   0.0000  0.00000  0.00000  0.0000  220.00 0.0000 0.00000 0.00000  0.0000  0.0000 0   
 125 冯屯变.35.1  1   1  0 .99748  0.000   0.0000  0.00000  0.00000  0.0000  35.000 0.0000 0.00000 0.00000  0.0000  -1.800 0   
 124 繁荣变.220.1 1   1  0 1.0433  0.000   123.40  65.4484  0.00000  0.0000  220.00 0.0000 0.00000 0.00000  0.0000  0.0000 0   
 123 富二电厂.220 1   1  0 1.0985  0.000   0.0000  0.00000  0.00000  0.0000  220.00 0.0000 0.00000 0.00000  0.0000  0.0000 0   
 122 丰满水电厂.2 1   1  0 1.0715  0.000   0.0000  0.00000  0.00000  0.0000  220.00 0.0000 0.00000 0.00000  0.0000  0.0000 0   
 121 丰乐变.220.1 1   1  0 1.0479  0.000   159.37  42.7631  0.00000  0.0000  220.00 0.0000 0.00000 0.00000  0.0000  0.0000 0   
 120 富拉尔基变.2 1   1  0 1.0974  0.000   68.527  22.5960  0.00000  0.0000  220.00 0.0000 0.00000 0.00000  0.0000  0.0000 0   
 137 钢铁变.220.1 1   1  0 1.0256  0.000   147.79  34.5386  0.00000  0.0000  220.00 0.0000 0.00000 0.00000  0.0000  0.0000 0   
 136 甘泉变.220.1 1   1  0 1.0208  0.000   161.79  29.9610  0.00000  0.0000  220.00 0.0000 0.00000 0.00000  0.0000  0.0000 0   
 139 高城山变.220 1   1  0 1.0138  0.000   67.375  -3.3113  0.00000  0.0000  220.00 0.0000 0.00000 0.00000  0.0000  0.0000 0   
 138 弓长岭变.220 1   1  0 1.0000  0.000   72.828  28.4359  0.00000  0.0000  220.00 0.0000 0.00000 0.00000  0.0000  0.0000 0   
 141 耿家变.220.1 1   1  0 1.0020  0.000   113.00  4.34591  0.00000  0.0000  220.00 0.0000 0.00000 0.00000  0.0000  0.0000 0   
 140 高集岗变.220 1   1  0 1.0682  0.000   -6.260  13.7271  0.00000  0.0000  220.00 0.0000 0.00000 0.00000  0.0000  0.0000 0   
 143 高岭变.500.1 1   1  0 1.0718  0.000   719.92  -6.1230  0.00000  0.0000  500.00 0.0000 0.00000 0.00000  0.0000  -1.500 0   
 142 高力板风电变 1   1  0 1.0477  0.000   -19.33  1.98030  0.00000  0.0000  220.00 0.0000 0.00000 0.00000  0.0000  0.0000 0   
 129 抚顺热电厂.2 1   1  0 1.0654  0.000   .37423  2.73955  0.00000  0.0000  220.00 0.0000 0.00000 0.00000  0.0000  0.0000 0   
 128 福利变.220.1 1   1  0 1.0486  0.000   28.772  23.4865  0.00000  0.0000  220.00 0.0000 0.00000 0.00000  0.0000  0.0000 0   
 131 扶余变.220.1 1   1  0 1.0418  0.000   113.24  19.5357  0.00000  0.0000  220.00 0.0000 0.00000 0.00000  0.0000  0.0000 0   
 130 阜新电厂.220 1   1  0 1.0719  0.000   59.029  29.9856  0.00000  0.0000  220.00 0.0000 0.00000 0.00000  0.0000  0.0000 0   
 133 方正变.35.1  1   1  0 .94523  0.000   0.0000  0.00000  0.00000  0.0000  35.000 0.0000 0.00000 0.00000  0.0000  -1.800 0   
 132 复州城变.220 1   1  0 1.0147  0.000   43.259  9.83342  0.00000  0.0000  220.00 0.0000 0.00000 0.00000  0.0000  0.0000 0   
 135 方正变.500.1 1   1  0 1.0821  0.000   0.0000  0.00000  0.00000  0.0000  500.00 0.0000 0.00000 0.00000  0.0000  -3.537 0   
 134 方正变.220.1 1   1  0 1.0640  0.000   0.0000  0.00000  0.00000  0.0000  220.00 0.0000 0.00000 0.00000  0.0000  0.0000 0   
 152 哈一热电厂.2 1   1  0 1.0985  0.000   .11913  4.58005  0.00000  0.0000  220.00 0.0000 0.00000 0.00000  0.0000  0.0000 0   
 153 哈东变.220.1 1   1  0 1.0684  0.000   94.589  31.2072  0.00000  0.0000  220.00 0.0000 0.00000 0.00000  0.0000  0.0000 0   
 154 哈热电厂.220 1   1  0 1.0836  0.000   0.0000  0.00000  0.00000  0.0000  220.00 0.0000 0.00000 0.00000  0.0000  0.0000 0   
 155 哈热电厂.220 1   1  0 1.0838  0.000   0.0000  0.00000  0.00000  0.0000  220.00 0.0000 0.00000 0.00000  0.0000  0.0000 0   
 156 韩屯变.220.1 1   1  0 1.0415  0.000   127.38  33.9326  0.00000  0.0000  220.00 0.0000 0.00000 0.00000  0.0000  0.0000 0   
 157 海湾变.220.1 1   1  0 1.0194  0.000   -26.15  -20.638  0.00000  0.0000  220.00 0.0000 0.00000 0.00000  0.0000  0.0000 0   
 158 哈西变.220.1 1   1  0 1.0856  0.000   126.16  34.7831  0.00000  0.0000  220.00 0.0000 0.00000 0.00000  0.0000  0.0000 0   
 159 河北变.220.1 1   1  0 1.0439  0.000   140.99  24.6247  0.00000  0.0000  220.00 0.0000 0.00000 0.00000  0.0000  0.0000 0   
 144 工农变.220.1 1   1  0 1.0280  0.000   114.80  52.3119  0.00000  0.0000  220.00 0.0000 0.00000 0.00000  0.0000  0.0000 0   
 145 革镇堡变.220 1   1  0 1.0096  0.000   130.01  32.1054  0.00000  0.0000  220.00 0.0000 0.00000 0.00000  0.0000  0.0000 0   
 146 甘旗卡变.220 1   1  0 1.0219  0.000   22.573  4.47883  0.00000  0.0000  220.00 0.0000 0.00000 0.00000  0.0000  0.0000 0   
 147 高台山变.220 1   1  0 1.0528  0.000   97.320  27.8879  0.00000  0.0000  220.00 0.0000 0.00000 0.00000  0.0000  0.0000 0   
 148 国庆变.220.1 1   1  0 1.0634  0.000   34.871  9.21499  0.00000  0.0000  220.00 0.0000 0.00000 0.00000  0.0000  0.0000 0   
 149 港湾变.220.1 1   1  0 1.0674  0.000   39.231  6.40244  0.00000  0.0000  220.00 0.0000 0.00000 0.00000  0.0000  0.0000 0   
 150 公主岭变.220 1   1  0 1.0591  0.000   100.43  20.4170  0.00000  0.0000  220.00 0.0000 0.00000 0.00000  0.0000  0.0000 0   
 151 盖州变.220.1 1   1  0 1.0246  0.000   149.32  27.3020  0.00000  0.0000  220.00 0.0000 0.00000 0.00000  0.0000  0.0000 0   
 171 黑和平变.220 1   1  0 1.0626  0.000   9.6289  -7.3826  0.00000  0.0000  220.00 0.0000 0.00000 0.00000  0.0000  0.0000 0   
 170 黑河变.220.1 1   1  0 1.0442  0.000   -2.952  -19.330  0.00000  0.0000  220.00 0.0000 0.00000 0.00000  0.0000  0.0000 0   
 169 黄海变.500.1 1   1  0 1.0604  0.000   0.0000  0.00000  0.00000  0.0000  500.00 0.0000 0.00000 0.00000  0.0000  -1.525 0   
 168 鹤岗电厂.220 1   1  0 1.0674  0.000   0.0000  0.00000  0.00000  0.0000  220.00 0.0000 0.00000 0.00000  0.0000  0.0000 0   
 175 霍煤坑口电厂 1   1  0 1.0655  0.000   0.0000  0.00000  0.00000  0.0000  500.00 0.0000 0.00000 0.00000  0.0000  -1.602 0   
 174 火炬变.220.1 1   1  0 1.0652  0.000   131.24  31.5777  0.00000  0.0000  220.00 0.0000 0.00000 0.00000  0.0000  0.0000 0   
 173 浑江电厂.220 1   1  0 1.0452  0.000   0.0000  0.00000  0.00000  0.0000  220.00 0.0000 0.00000 0.00000  0.0000  0.0000 0   
 172 浑河变.220.1 1   1  0 1.0393  0.000   222.37  60.6046  0.00000  0.0000  220.00 0.0000 0.00000 0.00000  0.0000  0.0000 0   
 163 桦甸变.220.1 1   1  0 1.0570  0.000   43.437  3.32632  0.00000  0.0000  220.00 0.0000 0.00000 0.00000  0.0000  0.0000 0   
 162 鹤东郊变.220 1   1  0 1.0685  0.000   11.617  -3.9496  0.00000  0.0000  220.00 0.0000 0.00000 0.00000  0.0000  0.0000 0   
 161 海城变.220.1 1   1  0 1.0197  0.000   108.60  1.50980  0.00000  0.0000  220.00 0.0000 0.00000 0.00000  0.0000  0.0000 0   
 160 珲春电厂.220 1   1  0 1.0658  0.000   0.0000  0.00000  0.00000  0.0000  220.00 0.0000 0.00000 0.00000  0.0000  0.0000 0   
 167 和龙变.220.1 1   1  0 1.0638  0.000   21.216  23.7520  0.00000  0.0000  220.00 0.0000 0.00000 0.00000  0.0000  0.0000 0   
 166 黑河换流变.2 1   1  0 1.0433  0.000   0.0000  0.00000  0.00000  0.0000  220.00 0.0000 0.00000 0.00000  0.0000  0.0000 0   
 165 黑河换流变.3 1   1  0 1.0438  0.000   .38168  47.2679  0.00000  0.0000  35.000 0.0000 0.00000 0.00000  0.0000  -0.250 0   
 164 哈达湾变.220 1   1  0 1.0639  0.000   73.303  78.5727  0.00000  0.0000  220.00 0.0000 0.00000 0.00000  0.0000  0.0000 0   
 186 红石水电厂.1 1   1  2 1.0567  0.000   0.0000  0.00000  -0.1667  -0.001  10.000 0.0000 99999.0 -99999.  0.0000  0.0000 0   
 187 和平变.220.1 1   1  0 1.0400  0.000   324.86  174.365  0.00000  0.0000  220.00 0.0000 0.00000 0.00000  0.0000  0.0000 0   
 184 哈南变.220.1 1   1  0 1.0901  0.000   0.0000  0.00000  0.00000  0.0000  220.00 0.0000 0.00000 0.00000  0.0000  0.0000 0   
 185 哈南变.500.1 1   1  0 1.0740  0.000   0.0000  0.00000  0.00000  0.0000  500.00 0.0000 0.00000 0.00000  0.0000  -1.400 0   
 190 哈热B电厂.22 1   1  0 1.0705  0.000   5.5825  7.82340  0.00000  0.0000  220.00 0.0000 0.00000 0.00000  0.0000  0.0000 0   
 191 桓仁变.220.1 1   1  0 1.0315  0.000   -6.400  -5.2355  0.00000  0.0000  220.00 0.0000 0.00000 0.00000  0.0000  0.0000 0   
 188 红旗堡变.220 1   1  0 1.0154  0.000   248.19  -3.4777  0.00000  0.0000  220.00 0.0000 0.00000 0.00000  0.0000  0.0000 0   
 189 红旗变.220.1 1   1  0 1.0599  0.000   166.68  55.6252  0.00000  0.0000  220.00 0.0000 0.00000 0.00000  0.0000  0.0000 0   
 178 海林变.220.1 1   1  0 1.0514  0.000   27.401  5.04621  0.00000  0.0000  220.00 0.0000 0.00000 0.00000  0.0000  0.0000 0   
 179 海伦变.220.1 1   1  0 1.0608  0.000   34.181  9.02584  0.00000  0.0000  220.00 0.0000 0.00000 0.00000  0.0000  0.0000 0   
 176 葫芦岛变.220 1   1  0 1.0634  0.000   129.36  46.2757  0.00000  0.0000  220.00 0.0000 0.00000 0.00000  0.0000  0.0000 0   
 177 霍林河变.220 1   1  0 1.0246  0.000   -11.49  13.3106  0.00000  0.0000  220.00 0.0000 0.00000 0.00000  0.0000  0.0000 0   
 182 呼玛变.220.1 1   1  0 1.0718  0.000   -1.450  14.8505  0.00000  0.0000  220.00 0.0000 0.00000 0.00000  0.0000  0.0000 0   
 183 哈南变.35.2  1   1  0 1.0218  0.000   0.0000  0.00000  0.00000  0.0000  35.000 0.0000 0.00000 0.00000  0.0000  -0.600 0   
 180 霍煤电厂.110 1   1  0 1.0411  0.000   68.379  136.617  0.00000  0.0000  110.00 0.0000 0.00000 0.00000  0.0000  0.0000 0   
 181 霍煤电厂.220 1   1  0 1.0241  0.000   0.0000  0.00000  0.00000  0.0000  220.00 0.0000 0.00000 0.00000  0.0000  0.0000 0   
 205 河西变.220.1 1   1  0 1.0235  0.000   153.70  70.8746  0.00000  0.0000  220.00 0.0000 0.00000 0.00000  0.0000  0.0000 0   
 204 宏伟电厂.220 1   1  0 1.0619  0.000   0.0000  0.00000  0.00000  0.0000  220.00 0.0000 0.00000 0.00000  0.0000  0.0000 0   
 207 合心变.35.1  1   1  0 1.0052  0.000   0.0000  0.00000  0.00000  0.0000  35.000 0.0000 0.00000 0.00000  0.0000  -1.800 0   
 206 红兴隆变.220 1   1  0 1.0580  0.000   87.990  75.9980  0.00000  0.0000  220.00 0.0000 0.00000 0.00000  0.0000  0.0000 0   
 201 环山变.220.1 1   1  0 1.0694  0.000   -2.736  3.39238  0.00000  0.0000  220.00 0.0000 0.00000 0.00000  0.0000  0.0000 0   
 200 花马变.220.1 1   1  0 1.0639  0.000   -34.39  4.52306  0.00000  0.0000  220.00 0.0000 0.00000 0.00000  0.0000  0.0000 0   
 203 鸿铝变.220.2 1   1  0 1.0236  0.000   29.676  5.82778  0.00000  0.0000  220.00 0.0000 0.00000 0.00000  0.0000  0.0000 0   
 202 鸿铝变.220.1 1   1  0 1.0137  0.000   374.67  143.984  0.00000  0.0000  220.00 0.0000 0.00000 0.00000  0.0000  0.0000 0   
 197 华宝变.220.1 1   1  0 1.0574  0.000   -83.45  -1.1867  0.00000  0.0000  220.00 0.0000 0.00000 0.00000  0.0000  0.0000 0   
 196 虎石台变.220 1   1  0 1.0471  0.000   171.15  87.1715  0.00000  0.0000  220.00 0.0000 0.00000 0.00000  0.0000  0.0000 0   
 199 虎林变.220.1 1   1  0 1.0627  0.000   1.9581  1.47691  0.00000  0.0000  220.00 0.0000 0.00000 0.00000  0.0000  0.0000 0   
 198 淮河变.220.1 1   1  0 1.0139  0.000   20.358  -5.6610  0.00000  0.0000  220.00 0.0000 0.00000 0.00000  0.0000  0.0000 0   
 193 哈三电厂.220 1   1  0 1.0779  0.000   0.0000  0.00000  0.00000  0.0000  220.00 0.0000 0.00000 0.00000  0.0000  0.0000 0   
 192 黑曙光变.220 1   1  0 1.0987  0.000   22.846  -1.4191  0.00000  0.0000  220.00 0.0000 0.00000 0.00000  0.0000  0.0000 0   
 195 黑山变.220.1 1   1  0 1.0612  0.000   -1.562  10.3677  0.00000  0.0000  220.00 0.0000 0.00000 0.00000  0.0000  0.0000 0   
 194 哈三电厂.220 1   1  0 1.0845  0.000   0.0000  0.00000  0.00000  0.0000  220.00 0.0000 0.00000 0.00000  0.0000  0.0000 0   
 220 吉东丰变.60. 1   1  0 .88726  0.000   0.0000  0.00000  0.00000  0.0000  66.000 0.0000 0.00000 0.00000  0.0000  -1.800 0   
 221 吉东丰变.60. 1   1  0 .90245  0.000   0.0000  0.00000  0.00000  0.0000  66.000 0.0000 0.00000 0.00000  0.0000  -1.200 0   
 222 吉东丰变.60. 1   1  0 .88983  0.000   0.0000  0.00000  0.00000  0.0000  66.000 0.0000 0.00000 0.00000  0.0000  -1.800 0   
 223 吉东丰变.220 1   1  0 1.0659  0.000   0.0000  0.00000  0.00000  0.0000  220.00 0.0000 0.00000 0.00000  0.0000  0.0000 0   
 216 金厂变.220.1 1   1  0 1.0334  0.000   58.993  23.6220  0.00000  0.0000  220.00 0.0000 0.00000 0.00000  0.0000  0.0000 0   
 217 长流变.220.1 1   1  0 1.0371  0.000   46.163  18.9870  0.00000  0.0000  220.00 0.0000 0.00000 0.00000  0.0000  0.0000 0   
 218 建昌变.220.1 1   1  0 1.0576  0.000   56.332  -1.3434  0.00000  0.0000  220.00 0.0000 0.00000 0.00000  0.0000  0.0000 0   
 219 吉林热电厂.2 1   1  0 1.0673  0.000   0.0000  0.00000  0.00000  0.0000  220.00 0.0000 0.00000 0.00000  0.0000  0.0000 0   
 212 红沿河变.220 1   1  0 1.0156  0.000   2.2148  7.76581  0.00000  0.0000  220.00 0.0000 0.00000 0.00000  0.0000  0.0000 0   
 213 铧子变.220.1 1   1  0 .99678  0.000   62.060  12.1946  0.00000  0.0000  220.00 0.0000 0.00000 0.00000  0.0000  0.0000 0   
 214 集安变.220.1 1   1  0 1.0333  0.000   9.6945  4.01819  0.00000  0.0000  220.00 0.0000 0.00000 0.00000  0.0000  0.0000 0   
 215 黑江北变.220 1   1  0 1.0697  0.000   77.984  33.1529  0.00000  0.0000  220.00 0.0000 0.00000 0.00000  0.0000  0.0000 0   
 208 合心变.60.1  1   1  0 1.0052  0.000   -1.649  12.6676  0.00000  0.0000  66.000 0.0000 0.00000 0.00000  0.0000  0.0000 0   
 209 合心变.220.1 1   1  0 1.0573  0.000   0.0000  0.00000  0.00000  0.0000  220.00 0.0000 0.00000 0.00000  0.0000  0.0000 0   
 210 合心变.500.1 1   1  0 1.0712  0.000   0.0000  0.00000  0.00000  0.0000  500.00 0.0000 0.00000 0.00000  0.0000  -2.596 0   
 211 黑鱼泡风电变 1   1  0 1.0591  0.000   -1.776  3.96702  0.00000  0.0000  220.00 0.0000 0.00000 0.00000  0.0000  0.0000 0   
 239 佳木斯电厂.2 1   1  0 1.0491  0.000   0.0000  0.00000  0.00000  0.0000  220.00 0.0000 0.00000 0.00000  0.0000  0.0000 0   
 238 佳木斯B电厂. 1   1  0 1.0617  0.000   3.1683  6.89382  0.00000  0.0000  220.00 0.0000 0.00000 0.00000  0.0000  0.0000 0   
 237 建龙变.220.1 1   1  0 1.0455  0.000   58.050  25.1533  0.00000  0.0000  220.00 0.0000 0.00000 0.00000  0.0000  0.0000 0   
 236 京科科右中电 1   1  0 1.0473  0.000   3.7545  6.80348  0.00000  0.0000  220.00 0.0000 0.00000 0.00000  0.0000  0.0000 0   
 235 锦州热电厂.2 1   1  0 1.0750  0.000   2.2651  3.80078  0.00000  0.0000  220.00 0.0000 0.00000 0.00000  0.0000  0.0000 0   
 234 金山变.220.1 1   1  0 1.0227  0.000   78.515  42.9572  0.00000  0.0000  220.00 0.0000 0.00000 0.00000  0.0000  0.0000 0   
 233 京诚变.220.1 1   1  0 1.0246  0.000   15.156  2.89295  0.00000  0.0000  220.00 0.0000 0.00000 0.00000  0.0000  0.0000 0   
 232 金家变.500.1 1   1  0 1.0455  0.000   0.0000  0.00000  0.00000  0.0000  500.00 0.0000 0.00000 0.00000  0.0000  -1.360 0   
 231 金家变.220.1 1   1  0 1.0140  0.000   0.0000  0.00000  0.00000  0.0000  220.00 0.0000 0.00000 0.00000  0.0000  0.0000 0   
 230 金家变.60.1  1   1  0 .84904  0.000   0.0000  0.00000  0.00000  0.0000  66.000 0.0000 0.00000 0.00000  0.0000  -2.600 0   
 229 蛟河变.220.1 1   1  0 1.0695  0.000   13.518  -1.1398  0.00000  0.0000  220.00 0.0000 0.00000 0.00000  0.0000  0.0000 0   
 228 江南变.220.1 1   1  0 1.0563  0.000   13.878  -1.4851  0.00000  0.0000  220.00 0.0000 0.00000 0.00000  0.0000  0.0000 0   
 227 加格达奇变.2 1   1  0 1.0677  0.000   -4.015  33.4126  0.00000  0.0000  220.00 0.0000 0.00000 0.00000  0.0000  0.0000 0   
 226 吉化肥变.220 1   1  0 1.0607  0.000   18.729  12.4107  0.00000  0.0000  220.00 0.0000 0.00000 0.00000  0.0000  0.0000 0   
 225 吉化肥变.220 1   1  0 1.0636  0.000   17.206  16.0566  0.00000  0.0000  220.00 0.0000 0.00000 0.00000  0.0000  0.0000 0   
 224 吉东丰变.500 1   1  0 1.0557  0.000   0.0000  0.00000  0.00000  0.0000  500.00 0.0000 0.00000 0.00000  0.0000  -1.178 0   
 254 靖宇变.220.1 1   1  0 1.0408  0.000   18.713  6.32480  0.00000  0.0000  220.00 0.0000 0.00000 0.00000  0.0000  0.0000 0   
 255 锦州电厂.220 1   1  0 1.0685  0.000   0.0000  0.00000  0.00000  0.0000  220.00 0.0000 0.00000 0.00000  0.0000  0.0000 0   