 22/03    DSF                  100.0  2014 1                          DSF
BUS DATA FOLLOWS                    873 ITEMS
   1 虚拟厂_65 0   0  0 1.0000  .0000   63.539  6.39530  .000000  .00000  220.00 .00000 .000000 .000000  .00000  .00000 0   
   2 虚拟厂_45 0   0  0 1.0000  .0000   .00000  .000000  .000000  .00000  10.000 .00000 .000000 .000000  .00000  .00000 0   
   3 虚拟厂_72 0   0  0 1.0000  .0000   .00000  .000000  .000000  .00000  110.00 .00000 .000000 .000000  .00000  .00000 0   
   4 tf_neutral   0   0  0 1.0000  .0000   .00000  .000000  .000000  .00000  .00000 .00000 .000000 .000000  .00000  .00000 0   
   5 虚拟厂_77 0   0  0 1.0000  .0000   .00000  .000000  .000000  .00000  10.000 .00000 .000000 .000000  .00000  .00000 0   
   6 tf_neutral   0   0  0 1.0000  .0000   .00000  .000000  .000000  .00000  .00000 .00000 .000000 .000000  .00000  .00000 0   
   7 虚拟厂_48 0   0  0 1.0000  .0000   .00000  .000000  .000000  .00000  220.00 .00000 .000000 .000000  .00000  .00000 0   
   8 虚拟厂_60 0   0  0 1.0000  .0000   .00000  .000000  .000000  .00000  500.00 .00000 .000000 .000000  .00000  .00000 0   
   9 虚拟厂_20 0   0  0 1.0000  .0000   .00000  .000000  .000000  .00000  500.00 .00000 .000000 .000000  .00000  -2.400 0   
  10 虚拟厂_18 0   0  0 1.0000  .0000   .00000  .000000  .000000  .00000  35.000 .00000 .000000 .000000  .00000  .00000 0   
  11 虚拟厂_48 0   0  0 1.0000  .0000   90.064  -13.096  .000000  .00000  220.00 .00000 .000000 .000000  .00000  .00000 0   
  12 tf_neutral   0   0  0 1.0000  .0000   .00000  .000000  .000000  .00000  .00000 .00000 .000000 .000000  .00000  .00000 0   
  13 虚拟厂_36 0   0  0 1.0000  .0000   .07100  10.5842  .000000  .00000  220.00 .00000 .000000 .000000  .00000  .00000 0   
  14 虚拟厂_70 0   0  0 1.0000  .0000   .00000  .000000  .000000  .00000  35.000 .00000 .000000 .000000  .00000  .00000 0   
  15 虚拟厂_25 0   0  0 1.0000  .0000   .00000  .000000  .000000  .00000  35.000 .00000 .000000 .000000  .00000  .00000 0   
  16 tf_neutral   0   0  0 1.0000  .0000   .00000  .000000  .000000  .00000  .00000 .00000 .000000 .000000  .00000  .00000 0   
  17 虚拟厂_29 0   0  0 1.0000  .0000   .00000  .000000  .000000  .00000  35.000 .00000 .000000 .000000  .00000  .00000 0   
  18 虚拟厂_43 0   0  0 1.0000  .0000   .00000  .000000  .000000  .00000  35.000 .00000 .000000 .000000  .00000  .00000 0   
  19 tf_neutral   0   0  0 1.0000  .0000   .00000  .000000  .000000  .00000  .00000 .00000 .000000 .000000  .00000  .00000 0   
  20 虚拟厂_18 0   0  0 1.0000  .0000   166.25  38.6792  .000000  .00000  220.00 .00000 .000000 .000000  .00000  .00000 0   
  21 虚拟厂_10 0   0  0 1.0000  .0000   .00000  .000000  .000000  .00000  10.000 .00000 .000000 .000000  .00000  .00000 0   
  22 虚拟厂_68 0   0  0 1.0000  .0000   .00000  .000000  .000000  .00000  110.00 .00000 .000000 .000000  .00000  .00000 0   
  23 tf_neutral   0   0  0 1.0000  .0000   .00000  .000000  .000000  .00000  .00000 .00000 .000000 .000000  .00000  .00000 0   
  24 虚拟厂_40 0   0  0 1.0000  .0000   .00000  .000000  .000000  .00000  10.000 .00000 .000000 .000000  .00000  .00000 0   
  25 tf_neutral   0   0  0 1.0000  .0000   .00000  .000000  .000000  .00000  .00000 .00000 .000000 .000000  .00000  .00000 0   
  26 虚拟厂_78 0   0  0 1.0000  .0000   .00000  .000000  .000000  .00000  35.000 .00000 .000000 .000000  .00000  -1.350 0   
  27 tf_neutral   0   0  0 1.0000  .0000   .00000  .000000  .000000  .00000  .00000 .00000 .000000 .000000  .00000  .00000 0   
  28 虚拟厂_23 0   0  0 1.0000  .0000   .00000  .000000  .000000  .00000  .38000 .00000 .000000 .000000  .00000  .00000 0   
  29 虚拟厂_46 0   0  0 1.0000  .0000   69.839  2.96170  .000000  .00000  220.00 .00000 .000000 .000000  .00000  .00000 0   
  30 虚拟厂_72 0   0  0 1.0000  .0000   .00000  .000000  .000000  .00000  10.000 .00000 .000000 .000000  .00000  .00000 0   
  31 虚拟厂_32 0   0  0 1.0000  .0000   .00000  .000000  .000000  .00000  10.000 .00000 .000000 .000000  .00000  .00000 0   
  32 虚拟厂_15 0   0  0 1.0000  .0000   .00000  .000000  .000000  .00000  110.00 .00000 .000000 .000000  .00000  .00000 0   
  33 tf_neutral   0   0  0 1.0000  .0000   .00000  .000000  .000000  .00000  .00000 .00000 .000000 .000000  .00000  .00000 0   
  34 虚拟厂_10 0   0  0 1.0000  .0000   .00000  .000000  .000000  .00000  10.000 .00000 .000000 .000000  .00000  .00000 0   
  35 tf_neutral   0   0  0 1.0000  .0000   .00000  .000000  .000000  .00000  .00000 .00000 .000000 .000000  .00000  .00000 0   
  36 虚拟厂_12 0   0  0 1.0000  .0000   .00000  .000000  .000000  .00000  10.000 .00000 .000000 .000000  .00000  .00000 0   
  37 虚拟厂_21 0   0  0 1.0000  .0000   40.673  20.9325  .000000  .00000  220.00 .00000 .000000 .000000  .00000  .00000 0   
  38 虚拟厂_54 0   0  0 1.0000  .0000   .00000  .000000  .000000  .00000  220.00 .00000 .000000 .000000  .00000  .00000 0   
  39 虚拟厂_34 0   0  0 1.0000  .0000   18.021  -11.404  .000000  .00000  220.00 .00000 .000000 .000000  .00000  .00000 0   
  40 虚拟厂_55 0   0  0 1.0000  .0000   29.843  -.81790  .000000  .00000  220.00 .00000 .000000 .000000  .00000  .00000 0   
  41 虚拟厂_47 0   0  0 1.0000  .0000   .00000  .000000  .000000  .00000  10.000 .00000 .000000 .000000  .00000  .00000 0   
  42 虚拟厂_60 0   0  0 1.0000  .0000   .00000  .000000  .000000  .00000  110.00 .00000 .000000 .000000  .00000  .00000 0   
  43 tf_neutral   0   0  0 1.0000  .0000   .00000  .000000  .000000  .00000  .00000 .00000 .000000 .000000  .00000  .00000 0   
  44 虚拟厂_56 0   0  0 1.0000  .0000   .00000  .000000  .000000  .00000  110.00 .00000 .000000 .000000  .00000  .00000 0   
  45 虚拟厂_76 0   0  2 1.0000  .0000   .00000  .000000  23.4954  .52394  10.000 .00000 .000000 .000000  .00000  .00000 0   
  46 虚拟厂_14 0   0  0 1.0000  .0000   .00000  .000000  .000000  .00000  10.000 .00000 .000000 .000000  .00000  .00000 0   
  47 tf_neutral   0   0  0 1.0000  .0000   .00000  .000000  .000000  .00000  .00000 .00000 .000000 .000000  .00000  .00000 0   
  48 虚拟厂_65 0   0  0 1.0000  .0000   94.409  1.75190  .000000  .00000  220.00 .00000 .000000 .000000  .00000  .00000 0   
  49 虚拟厂_56 0   0  0 1.0000  .0000   .00000  .000000  .000000  .00000  10.000 .00000 .000000 .000000  .00000  .00000 0   
  50 虚拟厂_43 0   0  0 1.0000  .0000   .00000  .000000  .000000  .00000  10.000 .00000 .000000 .000000  .00000  .00000 0   
  51 虚拟厂_77 0   0  0 1.0000  .0000   .00000  .000000  .000000  .00000  110.00 .00000 .000000 .000000  .00000  .00000 0   
  52 tf_neutral   0   0  0 1.0000  .0000   .00000  .000000  .000000  .00000  .00000 .00000 .000000 .000000  .00000  .00000 0   
  53 虚拟厂_42 0   0  0 1.0000  .0000   .00000  .000000  .000000  .00000  110.00 .00000 .000000 .000000  .00000  .00000 0   
  54 虚拟厂_39 0   0  0 1.0000  .0000   .00000  .000000  .000000  .00000  10.000 .00000 .000000 .000000  .00000  .00000 0   
  55 虚拟厂_12 0   0  0 1.0000  .0000   .00000  .000000  .000000  .00000  10.000 .00000 .000000 .000000  .00000  .00000 0   
  56 虚拟厂_13 0   0  0 1.0000  .0000   .00000  .000000  .000000  .00000  110.00 .00000 .000000 .000000  .00000  .00000 0   
  57 虚拟厂_19 0   0  0 1.0000  .0000   .00000  .000000  .000000  .00000  110.00 .00000 .000000 .000000  .00000  .00000 0   
  58 虚拟厂_15 0   0  0 1.0000  .0000   .00000  .000000  .000000  .00000  110.00 .00000 .000000 .000000  .00000  .00000 0   
  59 虚拟厂_28 0   0  0 1.0000  .0000   .00000  .000000  .000000  .00000  110.00 .00000 .000000 .000000  .00000  .00000 0   
  60 虚拟厂_61 0   0  0 1.0000  .0000   .00000  .000000  .000000  .00000  10.000 .00000 .000000 .000000  .00000  .00000 0   
  61 tf_neutral   0   0  0 1.0000  .0000   .00000  .000000  .000000  .00000  .00000 .00000 .000000 .000000  .00000  .00000 0   
  62 虚拟厂_11 0   0  0 1.0000  .0000   .00000  .000000  .000000  .00000  10.000 .00000 .000000 .000000  .00000  .00000 0   
  63 虚拟厂_24 0   0  0 1.0000  .0000   183.20  21.1902  .000000  .00000  220.00 .00000 .000000 .000000  .00000  .00000 0   
  64 虚拟厂_75 0   0  0 1.0000  .0000   11.095  -3.5448  .000000  .00000  220.00 .00000 .000000 .000000  .00000  .00000 0   
  65 虚拟厂_48 0   0  0 1.0000  .0000   .00000  .000000  .000000  .00000  10.000 .00000 .000000 .000000  .00000  .00000 0   
  66 虚拟厂_64 0   0  0 1.0000  .0000   .00000  .000000  .000000  .00000  110.00 .00000 .000000 .000000  .00000  .00000 0   
  67 tf_neutral   0   0  0 1.0000  .0000   .00000  .000000  .000000  .00000  .00000 .00000 .000000 .000000  .00000  .00000 0   
  68 虚拟厂_51 0   0  0 1.0000  .0000   -77.48  16.9165  .000000  .00000  220.00 .00000 .000000 .000000  .00000  .00000 0   
  69 虚拟厂_36 0   0  0 1.0000  .0000   .00000  .000000  .000000  .00000  10.000 .00000 .000000 .000000  .00000  -.1500 0   
  70 虚拟厂_27 0   0  0 1.0000  .0000   .00000  .000000  .000000  .00000  110.00 .00000 .000000 .000000  .00000  .00000 0   
  71 tf_neutral   0   0  0 1.0000  .0000   .00000  .000000  .000000  .00000  .00000 .00000 .000000 .000000  .00000  .00000 0   
  72 虚拟厂_73 0   0  0 1.0000  .0000   .00000  .000000  .000000  .00000  10.000 .00000 .000000 .000000  .00000  -.1500 0   
  73 tf_neutral   0   0  0 1.0000  .0000   .00000  .000000  .000000  .00000  .00000 .00000 .000000 .000000  .00000  .00000 0   
  74 虚拟厂_16 0   0  0 1.0000  .0000   .00000  .000000  .000000  .00000  110.00 .00000 .000000 .000000  .00000  .00000 0   
  75 虚拟厂_59 0   0  0 1.0000  .0000   .00000  .000000  .000000  .00000  110.00 .00000 .000000 .000000  .00000  .00000 0   
  76 虚拟厂_51 0   0  0 1.0000  .0000   .00000  .000000  .000000  .00000  220.00 .00000 .000000 .000000  .00000  .00000 0   
  77 虚拟厂_78 0   0  0 1.0000  .0000   92.779  19.2836  .000000  .00000  220.00 .00000 .000000 .000000  .00000  .00000 0   
  78 虚拟厂_49 0   0  0 1.0000  .0000   .00000  .000000  .000000  .00000  10.000 .00000 .000000 .000000  .00000  .00000 0   
  79 虚拟厂_26 0   0  0 1.0000  .0000   .00000  .000000  .000000  .00000  110.00 .00000 .000000 .000000  .00000  .00000 0   
  80 tf_neutral   0   0  0 1.0000  .0000   .00000  .000000  .000000  .00000  .00000 .00000 .000000 .000000  .00000  .00000 0   
  81 虚拟厂_31 0   0  0 1.0000  .0000   .00000  .000000  .000000  .00000  110.00 .00000 .000000 .000000  .00000  .00000 0   
  82 虚拟厂_34 0   0  0 1.0000  .0000   .00000  .000000  .000000  .00000  10.000 .00000 .000000 .000000  .00000  .00000 0   
  83 tf_neutral   0   0  0 1.0000  .0000   .00000  .000000  .000000  .00000  .00000 .00000 .000000 .000000  .00000  .00000 0   
  84 虚拟厂_59 0   0  0 1.0000  .0000   107.44  4.42750  .000000  .00000  220.00 .00000 .000000 .000000  .00000  .00000 0   
  85 虚拟厂_11 0   0  0 1.0000  .0000   .00000  .000000  .000000  .00000  10.000 .00000 .000000 .000000  .00000  .00000 0   
  86 虚拟厂_61 0   0  0 1.0000  .0000   .00000  .000000  .000000  .00000  10.000 .00000 .000000 .000000  .00000  .00000 0   
  87 虚拟厂_77 0   0  0 1.0000  .0000   .00000  .000000  .000000  .00000  110.00 .00000 .000000 .000000  .00000  .00000 0   
  88 tf_neutral   0   0  0 1.0000  .0000   .00000  .000000  .000000  .00000  .00000 .00000 .000000 .000000  .00000  .00000 0   
  89 虚拟厂_19 0   0  0 1.0000  .0000   .00000  .000000  .000000  .00000  110.00 .00000 .000000 .000000  .00000  .00000 0   
  90 虚拟厂_61 0   0  0 1.0000  .0000   .00000  .000000  .000000  .00000  10.000 .00000 .000000 .000000  .00000  .00000 0   
  91 虚拟厂_70 0   0  0 1.0000  .0000   .00000  .000000  .000000  .00000  10.000 .00000 .000000 .000000  .00000  .00000 0   
  92 虚拟厂_59 0   0  0 1.0000  .0000   .00000  .000000  .000000  .00000  110.00 .00000 .000000 .000000  .00000  .00000 0   
  93 虚拟厂_30 0   0  0 1.0000  .0000   .00000  .000000  .000000  .00000  10.000 .00000 .000000 .000000  .00000  .00000 0   
  94 tf_neutral   0   0  0 1.0000  .0000   .00000  .000000  .000000  .00000  .00000 .00000 .000000 .000000  .00000  .00000 0   
  95 虚拟厂_14 0   0  0 1.0000  .0000   .00000  .000000  .000000  .00000  10.000 .00000 .000000 .000000  .00000  .09600 0   
  96 虚拟厂_23 0   0  0 1.0000  .0000   .00000  .000000  .000000  .00000  110.00 .00000 .000000 .000000  .00000  .00000 0   
  97 虚拟厂_69 0   0  0 1.0000  .0000   59.390  1.50250  .000000  .00000  220.00 .00000 .000000 .000000  .00000  .00000 0   
  98 虚拟厂_62 0   0  0 1.0000  .0000   .00000  .000000  .000000  .00000  220.00 .00000 .000000 .000000  .00000  .00000 0   
  99 虚拟厂_35 0   0  0 1.0000  .0000   .00000  .000000  .000000  .00000  10.000 .00000 .000000 .000000  .00000  .00000 0   
 100 虚拟厂_37 0   0  0 1.0000  .0000   .00000  .000000  .000000  .00000  110.00 .00000 .000000 .000000  .00000  .00000 0   
 101 tf_neutral   0   0  0 1.0000  .0000   .00000  .000000  .000000  .00000  .00000 .00000 .000000 .000000  .00000  .00000 0   
 102 虚拟厂_41 0   0  0 1.0000  .0000   .00000  .000000  .000000  .00000  110.00 .00000 .000000 .000000  .00000  .00000 0   
 103 虚拟厂_54 0   0  0 1.0000  .0000   .00000  .000000  .000000  .00000  110.00 .00000 .000000 .000000  .00000  .00000 0   
 104 虚拟厂_79 0   0  0 1.0000  .0000   .00000  .000000  .000000  .00000  10.000 .00000 .000000 .000000  .00000  .00000 0   
 105 tf_neutral   0   0  0 1.0000  .0000   .00000  .000000  .000000  .00000  .00000 .00000 .000000 .000000  .00000  .00000 0   
 106 虚拟厂_40 0   0  0 1.0000  .0000   18.505  -4.9774  .000000  .00000  220.00 .00000 .000000 .000000  .00000  .00000 0   
 107 虚拟厂_67 0   0  0 1.0000  .0000   .00000  .000000  .000000  .00000  10.000 .00000 .000000 .000000  .00000  .00000 0   
 108 虚拟厂_42 0   0  0 1.0000  .0000   .00000  .000000  .000000  .00000  110.00 .00000 .000000 .000000  .00000  .00000 0   
 109 tf_neutral   0   0  0 1.0000  .0000   .00000  .000000  .000000  .00000  .00000 .00000 .000000 .000000  .00000  .00000 0   
 110 虚拟厂_34 0   0  0 1.0000  .0000   .00000  .000000  .000000  .00000  220.00 .00000 .000000 .000000  .00000  .00000 0   
 111 虚拟厂_48 0   0  2 1.0000  .0000   .00000  .000000  .000000  .00000  13.800 .00000 75.0000 -75.000  .00000  .00000 0   
 112 虚拟厂_27 0   0  0 1.0000  .0000   .00000  .000000  .000000  .00000  13.800 .00000 .000000 .000000  .00000  .00000 0   
 113 虚拟厂_45 0   0  0 1.0000  .0000   .00000  .000000  .000000  .00000  500.00 .00000 .000000 .000000  .00000  -2.400 0   
 114 虚拟厂_42 0   0  0 1.0000  .0000   .00000  .000000  .000000  .00000  500.00 .00000 .000000 .000000  .00000  .00000 0   
 115 虚拟厂_62 0   0  0 1.0000  .0000   .00000  .000000  .000000  .00000  18.000 .00000 .000000 .000000  .00000  .00000 0   
 116 虚拟厂_79 0   0  0 1.0000  .0000   .00000  .000000  .000000  .00000  18.000 .00000 .000000 .000000  .00000  .00000 0   
 117 虚拟厂_77 0   0  0 1.0000  .0000   .00000  .000000  .000000  .00000  18.000 .00000 .000000 .000000  .00000  .00000 0   
 118 虚拟厂_70 0   0  0 1.0000  .0000   .00000  .000000  .000000  .00000  35.000 .00000 .000000 .000000  .00000  -1.200 0   
 119 tf_neutral   0   0  0 1.0000  .0000   .00000  .000000  .000000  .00000  .00000 .00000 .000000 .000000  .00000  .00000 0   
 120 虚拟厂_76 0   0  0 1.0000  .0000   .00000  .000000  .000000  .00000  35.000 .00000 .000000 .000000  .00000  .00000 0   
 121 tf_neutral   0   0  0 1.0000  .0000   .00000  .000000  .000000  .00000  .00000 .00000 .000000 .000000  .00000  .00000 0   
 122 虚拟厂_33 0   0  0 1.0000  .0000   .00000  .000000  .000000  .00000  .38000 .00000 .000000 .000000  .00000  .00000 0   
 123 虚拟厂_78 0   0  3 1.0000  .0000   .00000  .000000  .000000  .00000  500.00 .00000 3600.00 -3600.0  .00000  .00000 0   
 124 虚拟厂_17 0   0  0 1.0000  .0000   .00000  .000000  .000000  .00000  35.000 .00000 .000000 .000000  .00000  .00000 0   
 125 虚拟厂_63 0   0  0 1.0000  .0000   .00000  .000000  .000000  .00000  220.00 .00000 .000000 .000000  .00000  .00000 0   
 126 tf_neutral   0   0  0 1.0000  .0000   .00000  .000000  .000000  .00000  .00000 .00000 .000000 .000000  .00000  .00000 0   
 127 虚拟厂_19 0   0  0 1.0000  .0000   .00000  .000000  .000000  .00000  35.000 .00000 .000000 .000000  .00000  .00000 0   
 128 虚拟厂_17 0   0  0 1.0000  .0000   .00000  .000000  .000000  .00000  220.00 .00000 .000000 .000000  .00000  .00000 0   
 129 tf_neutral   0   0  0 1.0000  .0000   .00000  .000000  .000000  .00000  .00000 .00000 .000000 .000000  .00000  .00000 0   
 130 虚拟厂_39 0   0  0 1.0000  .0000   .00000  .000000  .000000  .00000  500.00 .00000 .000000 .000000  .00000  -2.700 0   
 131 虚拟厂_55 0   0  0 1.0000  .0000   .00000  .000000  .000000  .00000  500.00 .00000 .000000 .000000  .00000  .00000 0   
 132 虚拟厂_60 0   0  0 1.0000  .0000   .00000  .000000  .000000  .00000  500.00 .00000 .000000 .000000  .00000  .00000 0   
 133 虚拟厂_76 0   0  2 1.0000  .0000   .00000  .000000  478.138  10.662  20.000 .00000 300.000 -400.00  .00000  .00000 0   
 134 虚拟厂_49 0   0  0 1.0000  .0000   .00000  .000000  .000000  .00000  35.000 .00000 .000000 .000000  .00000  -1.200 0   
 135 虚拟厂_38 0   0  0 1.0000  .0000   .00000  .000000  .000000  .00000  220.00 .00000 .000000 .000000  .00000  .00000 0   
 136 tf_neutral   0   0  0 1.0000  .0000   .00000  .000000  .000000  .00000  .00000 .00000 .000000 .000000  .00000  .00000 0   
 137 虚拟厂_53 0   0  0 1.0000  .0000   36.658  -2.6888  .000000  .00000  220.00 .00000 .000000 .000000  .00000  .00000 0   
 138 虚拟厂_54 0   0  0 1.0000  .0000   80.395  -7.6746  .000000  .00000  220.00 .00000 .000000 .000000  .00000  .00000 0   
 139 虚拟厂_53 0   0  0 1.0000  .0000   120.12  6.06150  .000000  .00000  220.00 .00000 .000000 .000000  .00000  .00000 0   
 140 虚拟厂_55 0   0  0 1.0000  .0000   .00000  .000000  .000000  .00000  10.000 .00000 .000000 .000000  .00000  .00000 0   
 141 虚拟厂_36 0   0  0 1.0000  .0000   .00000  .000000  .000000  .00000  110.00 .00000 .000000 .000000  .00000  .00000 0   
 142 tf_neutral   0   0  0 1.0000  .0000   .00000  .000000  .000000  .00000  .00000 .00000 .000000 .000000  .00000  .00000 0   
 143 虚拟厂_68 0   0  0 1.0000  .0000   .00000  .000000  .000000  .00000  10.000 .00000 .000000 .000000  .00000  .00000 0   
 144 tf_neutral   0   0  0 1.0000  .0000   .00000  .000000  .000000  .00000  .00000 .00000 .000000 .000000  .00000  .00000 0   
 145 虚拟厂_56 0   0  0 1.0000  .0000   .00000  .000000  .000000  .00000  10.000 .00000 .000000 .000000  .00000  .07500 0   
 146 虚拟厂_34 0   0  0 1.0000  .0000   .00000  .000000  .000000  .00000  10.000 .00000 .000000 .000000  .00000  .16000 0   
 147 虚拟厂_36 0   0  0 1.0000  .0000   .00000  .000000  .000000  .00000  110.00 .00000 .000000 .000000  .00000  .00000 0   
 148 tf_neutral   0   0  0 1.0000  .0000   .00000  .000000  .000000  .00000  .00000 .00000 .000000 .000000  .00000  .00000 0   
 149 虚拟厂_62 0   0  0 1.0000  .0000   .00000  .000000  .000000  .00000  10.000 .00000 .000000 .000000  .00000  .00000 0   
 150 tf_neutral   0   0  0 1.0000  .0000   .00000  .000000  .000000  .00000  .00000 .00000 .000000 .000000  .00000  .00000 0   
 151 虚拟厂_63 0   0  0 1.0000  .0000   .00000  .000000  .000000  .00000  10.000 .00000 .000000 .000000  .00000  .08000 0   
 152 虚拟厂_63 0   0  0 1.0000  .0000   .00000  .000000  .000000  .00000  10.000 .00000 .000000 .000000  .00000  .00000 0   
 153 tf_neutral   0   0  0 1.0000  .0000   .00000  .000000  .000000  .00000  .00000 .00000 .000000 .000000  .00000  .00000 0   
 154 虚拟厂_13 0   0  0 1.0000  .0000   .00000  .000000  .000000  .00000  10.000 .00000 .000000 .000000  .00000  .00000 0   
 155 虚拟厂_66 0   0  0 1.0000  .0000   .00000  .000000  .000000  .00000  110.00 .00000 .000000 .000000  .00000  .00000 0   
 156 虚拟厂_74 0   0  0 1.0000  .0000   .00000  .000000  .000000  .00000  110.00 .00000 .000000 .000000  .00000  .00000 0   
 157 虚拟厂_32 0   0  0 1.0000  .0000   .00000  .000000  .000000  .00000  110.00 .00000 .000000 .000000  .00000  .00000 0   
 158 虚拟厂_31 0   0  0 1.0000  .0000   66.093  2.30600  .000000  .00000  220.00 .00000 .000000 .000000  .00000  .00000 0   
 159 虚拟厂_32 0   0  0 1.0000  .0000   .00000  .000000  .000000  .00000  10.000 .00000 .000000 .000000  .00000  .00000 0   
 160 虚拟厂_47 0   0  0 1.0000  .0000   .00000  .000000  .000000  .00000  10.000 .00000 .000000 .000000  .00000  .00000 0   
 161 虚拟厂_36 0   0  0 1.0000  .0000   .00000  .000000  .000000  .00000  110.00 .00000 .000000 .000000  .00000  .00000 0   
 162 tf_neutral   0   0  0 1.0000  .0000   .00000  .000000  .000000  .00000  .00000 .00000 .000000 .000000  .00000  .00000 0   
 163 虚拟厂_54 0   0  0 1.0000  .0000   .00000  .000000  .000000  .00000  110.00 .00000 .000000 .000000  .00000  .00000 0   
 164 虚拟厂_49 0   0  0 1.0000  .0000   .00000  .000000  .000000  .00000  110.00 .00000 .000000 .000000  .00000  .00000 0   
 165 虚拟厂_30 0   0  0 1.0000  .0000   .00000  .000000  .000000  .00000  110.00 .00000 .000000 .000000  .00000  .00000 0   
 166 虚拟厂_28 0   0  0 1.0000  .0000   .00000  .000000  .000000  .00000  110.00 .00000 .000000 .000000  .00000  .00000 0   
 167 虚拟厂_67 0   0  0 1.0000  .0000   .00000  .000000  .000000  .00000  110.00 .00000 .000000 .000000  .00000  .00000 0   
 168 虚拟厂_11 0   0  0 1.0000  .0000   .00000  .000000  .000000  .00000  110.00 .00000 .000000 .000000  .00000  .00000 0   
 169 虚拟厂_27 0   0  0 1.0000  .0000   .00000  .000000  .000000  .00000  110.00 .00000 .000000 .000000  .00000  .00000 0   
 170 虚拟厂_54 0   0  0 1.0000  .0000   .00000  .000000  .000000  .00000  110.00 .00000 .000000 .000000  .00000  .00000 0   
 171 虚拟厂_63 0   0  0 1.0000  .0000   .00000  .000000  .000000  .00000  110.00 .00000 .000000 .000000  .00000  .00000 0   
 172 虚拟厂_49 0   0  0 1.0000  .0000   .00000  .000000  .000000  .00000  10.000 .00000 .000000 .000000  .00000  .00000 0   
 173 虚拟厂_24 0   0  0 1.0000  .0000   .00000  .000000  .000000  .00000  35.000 .00000 .000000 .000000  .00000  .00000 0   
 174 tf_neutral   0   0  0 1.0000  .0000   .00000  .000000  .000000  .00000  .00000 .00000 .000000 .000000  .00000  .00000 0   
 175 虚拟厂_43 0   0  0 1.0000  .0000   .00000  .000000  .000000  .00000  110.00 .00000 .000000 .000000  .00000  .00000 0   
 176 tf_neutral   0   0  0 1.0000  .0000   .00000  .000000  .000000  .00000  .00000 .00000 .000000 .000000  .00000  .00000 0   
 177 虚拟厂_57 0   0  0 1.0000  .0000   .00000  .000000  .000000  .00000  110.00 .00000 .000000 .000000  .00000  .00000 0   
 178 虚拟厂_32 0   0  0 1.0000  .0000   .00000  .000000  .000000  .00000  110.00 .00000 .000000 .000000  .00000  .00000 0   
 179 虚拟厂_22 0   0  0 1.0000  .0000   .00000  .000000  .000000  .00000  110.00 .00000 .000000 .000000  .00000  .00000 0   
 180 虚拟厂_64 0   0  0 1.0000  .0000   .00000  .000000  .000000  .00000  110.00 .00000 .000000 .000000  .00000  .00000 0   
 181 虚拟厂_39 0   0  0 1.0000  .0000   .00000  .000000  .000000  .00000  110.00 .00000 .000000 .000000  .00000  .00000 0   
 182 虚拟厂_73 0   0  0 1.0000  .0000   .00000  .000000  .000000  .00000  110.00 .00000 .000000 .000000  .00000  .00000 0   
 183 虚拟厂_16 0   0  0 1.0000  .0000   .00000  .000000  .000000  .00000  110.00 .00000 .000000 .000000  .00000  .00000 0   
 184 虚拟厂_47 0   0  0 1.0000  .0000   66.673  -9.4101  .000000  .00000  220.00 .00000 .000000 .000000  .00000  .00000 0   
 185 虚拟厂_26 0   0  0 1.0000  .0000   21.500  4.54830  .000000  .00000  220.00 .00000 .000000 .000000  .00000  .00000 0   
 186 虚拟厂_52 0   0  0 1.0000  .0000   .00000  .000000  .000000  .00000  220.00 .00000 .000000 .000000  .00000  .00000 0   
 187 虚拟厂_31 0   0  0 1.0000  .0000   25.467  .347100  .000000  .00000  220.00 .00000 .000000 .000000  .00000  .00000 0   
 188 虚拟厂_26 0   0  0 1.0000  .0000   .00000  .000000  .000000  .00000  10.000 .00000 .000000 .000000  .00000  .00000 0   
 189 虚拟厂_35 0   0  0 1.0000  .0000   .00000  .000000  .000000  .00000  10.000 .00000 .000000 .000000  .00000  .09000 0   
 190 虚拟厂_65 0   0  0 1.0000  .0000   .00000  .000000  .000000  .00000  110.00 .00000 .000000 .000000  .00000  .00000 0   
 191 tf_neutral   0   0  0 1.0000  .0000   .00000  .000000  .000000  .00000  .00000 .00000 .000000 .000000  .00000  .00000 0   
 192 虚拟厂_70 0   0  0 1.0000  .0000   .00000  .000000  .000000  .00000  110.00 .00000 .000000 .000000  .00000  .00000 0   
 193 虚拟厂_75 0   0  0 1.0000  .0000   .00000  .000000  .000000  .00000  110.00 .00000 .000000 .000000  .00000  .00000 0   
 194 虚拟厂_47 0   0  0 1.0000  .0000   .00000  .000000  .000000  .00000  110.00 .00000 .000000 .000000  .00000  .00000 0   
 195 虚拟厂_44 0   0  0 1.0000  .0000   .00000  .000000  .000000  .00000  110.00 .00000 .000000 .000000  .00000  .00000 0   
 196 虚拟厂_41 0   0  0 1.0000  .0000   .00000  .000000  .000000  .00000  110.00 .00000 .000000 .000000  .00000  .00000 0   
 197 虚拟厂_66 0   0  0 1.0000  .0000   58.382  .000000  .000000  .00000  220.00 .00000 .000000 .000000  .00000  .00000 0   
 198 虚拟厂_42 0   0  0 1.0000  .0000   .00000  .000000  .000000  .00000  10.000 .00000 .000000 .000000  .00000  .00000 0   
 199 tf_neutral   0   0  0 1.0000  .0000   .00000  .000000  .000000  .00000  .00000 .00000 .000000 .000000  .00000  .00000 0   
 200 虚拟厂_16 0   0  0 1.0000  .0000   .00000  .000000  .000000  .00000  10.000 .00000 .000000 .000000  .00000  .06000 0   
 201 虚拟厂_23 0   0  0 1.0000  .0000   .00000  .000000  .000000  .00000  10.000 .00000 .000000 .000000  .00000  .00000 0   
 202 tf_neutral   0   0  0 1.0000  .0000   .00000  .000000  .000000  .00000  .00000 .00000 .000000 .000000  .00000  .00000 0   
 203 虚拟厂_51 0   0  0 1.0000  .0000   .00000  .000000  .000000  .00000  10.000 .00000 .000000 .000000  .00000  .06000 0   
 204 虚拟厂_39 0   0  0 1.0000  .0000   .00000  .000000  .000000  .00000  110.00 .00000 .000000 .000000  .00000  .00000 0   
 205 虚拟厂_50 0   0  0 1.0000  .0000   67.506  17.6496  .000000  .00000  220.00 .00000 .000000 .000000  .00000  .00000 0   
 206 虚拟厂_21 0   0  0 1.0000  .0000   158.10  19.0691  .000000  .00000  220.00 .00000 .000000 .000000  .00000  .00000 0   
 207 虚拟厂_33 0   0  0 1.0000  .0000   .00000  .000000  .000000  .00000  10.000 .00000 .000000 .000000  .00000  .00000 0   
 208 虚拟厂_59 0   0  0 1.0000  .0000   .00000  .000000  .000000  .00000  10.000 .00000 .000000 .000000  .00000  .14000 0   
 209 虚拟厂_25 0   0  0 1.0000  .0000   .00000  .000000  .000000  .00000  110.00 .00000 .000000 .000000  .00000  .00000 0   
 210 tf_neutral   0   0  0 1.0000  .0000   .00000  .000000  .000000  .00000  .00000 .00000 .000000 .000000  .00000  .00000 0   
 211 虚拟厂_51 0   0  0 1.0000  .0000   .00000  .000000  .000000  .00000  110.00 .00000 .000000 .000000  .00000  .00000 0   
 212 虚拟厂_72 0   0  0 1.0000  .0000   .00000  .000000  .000000  .00000  10.000 .00000 .000000 .000000  .00000  .00000 0   
 213 tf_neutral   0   0  0 1.0000  .0000   .00000  .000000  .000000  .00000  .00000 .00000 .000000 .000000  .00000  .00000 0   
 214 虚拟厂_11 0   0  0 1.0000  .0000   .00000  .000000  .000000  .00000  10.000 .00000 .000000 .000000  .00000  .21000 0   
 215 虚拟厂_12 0   0  0 1.0000  .0000   .00000  .000000  .000000  .00000  110.00 .00000 .000000 .000000  .00000  .00000 0   
 216 虚拟厂_19 0   0  0 1.0000  .0000   .00000  .000000  .000000  .00000  110.00 .00000 .000000 .000000  .00000  .00000 0   
 217 虚拟厂_53 0   0  0 1.0000  .0000   .00000  .000000  .000000  .00000  110.00 .00000 .000000 .000000  .00000  .00000 0   
 218 虚拟厂_57 0   0  0 1.0000  .0000   .00000  .000000  .000000  .00000  110.00 .00000 .000000 .000000  .00000  .00000 0   
 219 虚拟厂_68 0   0  0 1.0000  .0000   .00000  .000000  .000000  .00000  10.000 .00000 .000000 .000000  .00000  .00000 0   
 220 虚拟厂_11 0   0  0 1.0000  .0000   .00000  .000000  .000000  .00000  110.00 .00000 .000000 .000000  .00000  .00000 0   
 221 虚拟厂_51 0   0  0 1.0000  .0000   .00000  .000000  .000000  .00000  110.00 .00000 .000000 .000000  .00000  .00000 0   
 222 虚拟厂_31 0   0  0 1.0000  .0000   .00000  .000000  .000000  .00000  110.00 .00000 .000000 .000000  .00000  .00000 0   
 223 虚拟厂_31 0   0  0 1.0000  .0000   .00000  .000000  .000000  .00000  110.00 .00000 .000000 .000000  .00000  .00000 0   
 224 虚拟厂_62 0   0  0 1.0000  .0000   61.936  -9.8969  .000000  .00000  220.00 .00000 .000000 .000000  .00000  .00000 0   
 225 虚拟厂_34 0   0  0 1.0000  .0000   .00000  .000000  .000000  .00000  220.00 .00000 .000000 .000000  .00000  .00000 0   
 226 虚拟厂_38 0   0  2 1.0000  .0000   .00000  .000000  149.796  3.3404  13.800 .00000 144.798 -50.000  .00000  .00000 0   
 227 虚拟厂_34 0   0  0 1.0000  .0000   .00000  .000000  .000000  .00000  10.000 .00000 .000000 .000000  .00000  .00000 0   
 228 tf_neutral   0   0  0 1.0000  .0000   .00000  .000000  .000000  .00000  .00000 .00000 .000000 .000000  .00000  .00000 0   
 229 虚拟厂_45 0   0  0 1.0000  .0000   .00000  .000000  .000000  .00000  10.000 .00000 .000000 .000000  .00000  .00000 0   
 230 虚拟厂_11 0   0  0 1.0000  .0000   .00000  .000000  .000000  .00000  10.000 .00000 .000000 .000000  .00000  .00000 0   
 231 tf_neutral   0   0  0 1.0000  .0000   .00000  .000000  .000000  .00000  .00000 .00000 .000000 .000000  .00000  .00000 0   
 232 虚拟厂_27 0   0  0 1.0000  .0000   .00000  .000000  .000000  .00000  10.000 .00000 .000000 .000000  .00000  .00000 0   
 233 虚拟厂_64 0   0  0 1.0000  .0000   .00000  .000000  .000000  .00000  220.00 .00000 .000000 .000000  .00000  .00000 0   
 234 虚拟厂_68 0   0  2 1.0000  .0000   .00000  .000000  161.389  3.5989  13.800 .00000 159.277 -50.000  .00000  .00000 0   
 235 虚拟厂_77 0   0  0 1.0000  .0000   89.550  -6.4653  .000000  .00000  220.00 .00000 .000000 .000000  .00000  .00000 0   
 236 虚拟厂_64 0   0  0 1.0000  .0000   .00000  .000000  .000000  .00000  10.000 .00000 .000000 .000000  .00000  .00000 0   
 237 虚拟厂_64 0   0  0 1.0000  .0000   .00000  .000000  .000000  .00000  10.000 .00000 .000000 .000000  .00000  .00000 0   
 238 虚拟厂_60 0   0  0 1.0000  .0000   .00000  .000000  .000000  .00000  110.00 .00000 .000000 .000000  .00000  .00000 0   
 239 tf_neutral   0   0  0 1.0000  .0000   .00000  .000000  .000000  .00000  .00000 .00000 .000000 .000000  .00000  .00000 0   
 240 虚拟厂_31 0   0  0 1.0000  .0000   .00000  .000000  .000000  .00000  10.000 .00000 .000000 .000000  .00000  .00000 0   
 241 tf_neutral   0   0  0 1.0000  .0000   .00000  .000000  .000000  .00000  .00000 .00000 .000000 .000000  .00000  .00000 0   
 242 虚拟厂_18 0   0  0 1.0000  .0000   .00000  .000000  .000000  .00000  10.000 .00000 .000000 .000000  .00000  .00000 0   