 27/07/13 ZJU RDS              100.0  2013 8         Anhuisheng Test Case
BUS DATA FOLLOWS                    6388 ITEMS
   1 皖洛河_62 1   1  2 .98000  .0000   30.620  14.3900  565.500  .00000  20.000 .98000 300.000 40.0000  .00000  .00000 0   
   2 皖洛河_52 1   1  2 .98000  .0000   35.810  16.8300  550.800  .00000  20.000 .98000 160.000 40.0000  .00000  .00000 0   
   3 华袁庄_12 1   1  2 .98000  .0000   28.450  13.3700  581.600  .00000  20.000 .98000 160.000 .000000  .00000  .00000 0   
   4 华袁庄_22 1   1  2 .98000  .0000   29.540  13.8800  582.700  .00000  20.000 .98000 160.000 .000000  .00000  .00000 0   
   5 华琅琊_11 1   1  2 .98000  .0000   .00000  .000000  149.700  .00000  15.700 .98000 10.0000 -10.000  .00000  .00000 0   
   6 华宿州_12 1   1  2 .98000  .0000   32.320  15.1900  402.600  .00000  20.000 .98000 315.000 50.0000  .00000  .00000 0   
   7 华宿州_22 1   1  2 .98000  .0000   31.870  14.9800  584.300  .00000  20.000 .98000 315.000 50.0000  .00000  .00000 0   
   8 华凤台_12 1   1  2 .98000  .0000   29.540  13.8800  583.200  .00000  20.000 .98000 160.000 50.0000  .00000  .00000 0   
   9 华凤台_22 1   1  2 .98000  .0000   36.540  17.1700  590.200  .00000  20.000 .98000 160.000 50.0000  .00000  .00000 0   
  10 华龙子_12 1   1  2 .98000  .0000   31.200  14.6600  589.700  .00000  20.000 .98000 300.000 50.0000  .00000  .00000 0   
  11 华龙子_22 1   1  2 .98000  .0000   35.010  16.4500  588.700  .00000  20.000 .98000 300.000 50.0000  .00000  .00000 0   
  12 皖淮二_22 1   1  2 .98000  .0000   23.260  10.9300  315.900  .00000  20.000 .98000 160.000 .000000  .00000  .00000 0   
  13 皖淮二_12 1   1  2 .98000  .0000   8.2890  3.89600  319.700  .00000  20.000 .98000 160.000 .000000  .00000  .00000 0   
  14 皖临涣_22 1   1  2 .98000  .0000   24.360  11.4500  299.000  .00000  20.000 .98000 160.000 .000000  .00000  .00000 0   
  15 皖临涣_12 1   1  2 .98000  .0000   24.220  11.3800  278.900  .00000  20.000 .98000 160.000 .000000  .00000  .00000 0   
  16 皖汇源_52 1   1  2 .98000  .0000   10.390  4.88400  269.500  .00000  20.000 .98000 75.0000 .000000  .00000  .00000 0   
  17 皖汇源_62 1   1  2 .98000  .0000   15.400  7.23900  279.700  .00000  20.000 .98000 75.0000 .000000  .00000  .00000 0   
  18 皖汇源_41 1   1  2 .98000  .0000   12.500  5.87700  95.0500  .00000  13.800 .98000 75.0000 .000000  .00000  .00000 0   
  19 皖阜润_22 1   1  2 .98000  .0000   32.560  15.3000  597.300  .00000  22.000 .98000 300.000 .000000  .00000  .00000 0   
  20 皖阜润_12 1   1  2 .98000  .0000   32.850  15.4400  600.300  .00000  22.000 .98000 300.000 50.0000  .00000  .00000 0   
  21 皖曹店G03 1   1  2 .98000  .0000   .00000  .000000  7.95100  .00000  37.000 .98000 22.5000 .000000  .00000  .00000 0   
  22 皖曹店G13 1   1  2 .98000  .0000   .00000  .000000  8.51600  .00000  37.000 .98000 27.0000 .000000  .00000  .00000 0   
  23 皖曹店G23 1   1  2 .98000  .0000   .00000  .000000  6.29900  .00000  37.000 .98000 24.0000 .000000  .00000  .00000 0   
  24 皖曹店G33 1   1  2 .98000  .0000   .00000  .000000  8.31300  .00000  37.000 .98000 25.5000 .000000  .00000  .00000 0   
  25 皖来安G13 1   1  2 .98000  .0000   .00000  .000000  4.54400  .00000  37.000 .98000 13.5000 .000000  .00000  .00000 0   
  26 皖来安G23 1   1  2 .98000  .0000   .00000  .000000  7.97900  .00000  37.000 .98000 15.0000 .000000  .00000  .00000 0   
  27 皖来安G33 1   1  2 .98000  .0000   .00000  .000000  6.54300  .00000  37.000 .98000 15.0000 .000000  .00000  .00000 0   
  28 皖来安G43 1   1  2 .98000  .0000   .00000  .000000  7.62500  .00000  37.000 .98000 15.0000 .000000  .00000  .00000 0   
  29 皖来安G53 1   1  2 .98000  .0000   .00000  .000000  5.42600  .00000  37.000 .98000 15.0000 .000000  .00000  .00000 0   
  30 皖来安G63 1   1  2 .98000  .0000   .00000  .000000  3.12400  .00000  37.000 .98000 15.0000 .000000  .00000  .00000 0   
  31 皖来安G73 1   1  2 .98000  .0000   .00000  .000000  .000000  .00000  37.000 .98000 15.0000 .000000  .00000  .00000 0   
  32 皖来安G83 1   1  2 .98000  .0000   .00000  .000000  .000000  .00000  37.000 .98000 15.0000 .000000  .00000  .00000 0   
  33 皖来安G93 1   1  2 .98000  .0000   .00000  .000000  .000000  .00000  37.000 .98000 15.0000 .000000  .00000  .00000 0   
  34 皖来安GA3 1   1  2 .98000  .0000   .00000  .000000  7.11400  .00000  37.000 .98000 15.0000 .000000  .00000  .00000 0   
  35 皖来安GB3 1   1  2 .98000  .0000   .00000  .000000  4.89000  .00000  37.000 .98000 15.0000 .000000  .00000  .00000 0   
  36 皖来安GC3 1   1  2 .98000  .0000   .00000  .000000  8.75000  .00000  37.000 .98000 15.0000 .000000  .00000  .00000 0   
  37 皖来安GD3 1   1  2 .98000  .0000   .00000  .000000  8.54200  .00000  37.000 .98000 15.0000 .000000  .00000  .00000 0   
  38 皖来安GE3 1   1  2 .98000  .0000   .00000  .000000  8.54200  .00000  37.000 .98000 15.0000 .000000  .00000  .00000 0   
  39 皖来安GF3 1   1  2 .98000  .0000   .00000  .000000  8.54200  .00000  37.000 .98000 15.0000 .000000  .00000  .00000 0   
  40 皖平圩_12 1   1  2 .98000  .0000   10.980  5.15900  548.800  .00000  20.000 .98000 300.000 40.0000  .00000  .00000 0   
  41 皖平圩_22 1   1  2 .98000  .0000   27.480  12.9200  549.600  .00000  20.000 .98000 315.000 40.0000  .00000  .00000 0   
  42 皖平圩G02 1   1  2 .98000  .0000   29.620  6.96000  593.600  .00000  20.000 .98000 315.000 .000000  .00000  .00000 0   
  43 皖平圩G12 1   1  2 .98000  .0000   30.820  7.24000  595.300  .00000  20.000 .98000 315.000 .000000  .00000  .00000 0   
  44 皖洛河_32 1   1  2 .98000  .0000   15.860  7.45300  278.500  .00000  20.000 .98000 160.000 20.0000  .00000  .00000 0   
  45 皖洛河_42 1   1  2 .98000  .0000   20.070  9.43100  280.100  .00000  20.000 .98000 160.000 20.0000  .00000  .00000 0   
  46 皖洛河_21 1   1  2 .98000  .0000   19.420  9.12600  300.400  .00000  18.000 .98000 160.000 40.0000  .00000  .00000 0   
  47 皖洛河_11 1   1  2 .98000  .0000   21.870  10.2800  299.900  .00000  18.000 .98000 55.0000 40.0000  .00000  .00000 0   
  48 皖田厂_52 1   1  2 .98000  .0000   19.470  9.14900  300.700  .00000  20.000 .98000 160.000 20.0000  .00000  .00000 0   
  49 皖田厂_62 1   1  2 .98000  .0000   24.000  11.2800  302.500  .00000  20.000 .98000 160.000 20.0000  .00000  .00000 0   
  50 皖钱甸_11 1   1  2 .98000  .0000   11.030  5.18500  127.900  .00000  13.800 .98000 55.0000 .000000  .00000  .00000 0   
  51 皖钱甸_21 1   1  2 .98000  .0000   9.3430  4.39100  124.500  .00000  13.800 .98000 55.0000 .000000  .00000  .00000 0   
  52 皖滨淮_21 1   1  2 .98000  .0000   9.8960  4.65100  123.000  .00000  13.800 .98000 60.0000 .000000  .00000  .00000 0   
  53 皖炉桥_22 1   1  2 .98000  .0000   12.450  5.85100  259.900  .00000  20.000 .98000 160.000 .000000  .00000  .00000 0   
  54 皖顾桥#22 1   1  2 .98000  .0000   18.380  8.63700  280.100  .00000  20.000 .98000 160.000 .000000  .00000  .00000 0   
  55 皖顾桥#12 1   1  2 .98000  .0000   17.100  8.03600  289.500  .00000  20.000 .98000 160.000 .000000  .00000  .00000 0   
  56 皖合厂_62 1   1  2 .98000  .0000   28.420  13.3600  500.700  .00000  20.000 .98000 75.0000 .000000  .00000  .00000 0   
  57 皖合厂_52 1   1  2 .98000  .0000   28.750  13.5100  530.600  .00000  22.000 .98000 75.0000 .000000  .00000  .00000 0   
  58 皖合二_12 1   1  2 .98000  .0000   16.220  7.62500  329.200  .00000  20.000 .98000 175.000 .000000  .00000  .00000 0   
  59 皖合二_22 1   1  2 .98000  .0000   22.100  10.3900  351.100  .00000  20.000 .98000 175.000 .000000  .00000  .00000 0   
  60 皖华六_11 1   1  2 .98000  .0000   9.8580  4.63300  112.400  .00000  13.800 .98000 62.5000 .000000  .00000  .00000 0   
  61 皖居巢_12 1   1  2 .98000  .0000   35.030  16.4600  599.000  .00000  20.000 .98000 160.000 .000000  .00000  .00000 0   
  62 皖居巢_22 1   1  2 .98000  .0000   15.220  7.15400  284.800  .00000  20.000 .98000 160.000 .000000  .00000  .00000 0   
  63 皖安厂_12 1   1  2 .98000  .0000   11.180  5.25700  299.800  .00000  20.000 .98000 160.000 .000000  .00000  .00000 0   
  64 皖安厂_22 1   1  2 .98000  .0000   14.560  6.84300  312.100  .00000  20.000 .98000 160.000 .000000  .00000  .00000 0   
  65 皖马二_12 1   1  2 .98000  .0000   25.670  12.0600  320.900  .00000  20.000 .98000 160.000 20.0000  .00000  .00000 0   
  66 皖马二_32 1   1  2 .98000  .0000   19.350  9.09300  292.700  .00000  20.000 .98000 180.000 -70.000  .00000  .00000 0   
  67 皖马二_42 1   1  2 .98000  .0000   14.350  6.74300  289.000  .00000  20.000 .98000 180.000 -70.000  .00000  .00000 0   
  68 皖马一_12 1   1  2 .98000  .0000   27.830  13.0800  567.300  .00000  20.000 .98000 70.0000 50.0000  .00000  .00000 0   
  69 皖马一_22 1   1  2 .98000  .0000   30.220  14.2000  565.800  .00000  20.000 .98000 70.0000 50.0000  .00000  .00000 0   
  70 皖塘岔_D1 1   1  2 .98000  .0000   5.0000  2.35000  52.0000  .00000  10.500 .98000 60.0000 10.0000  .00000  .00000 0   
  71 皖塘岔111 1   1  2 .98000  .0000   5.0000  2.35000  128.000  .00000  10.500 .98000 60.0000 .000000  .00000  .00000 0   
  72 皖塘岔121 1   1  2 .98000  .0000   10.000  4.70000  140.000  .00000  10.500 .98000 60.0000 .000000  .00000  .00000 0   
  73 皖新桥_22 1   1  2 .98000  .0000   29.330  13.7800  656.000  .00000  20.000 .98000 300.000 -200.00  .00000  .00000 0   
  74 皖新桥_12 1   1  2 .98000  .0000   .00000  .000000  656.000  .00000  20.000 .98000 300.000 -200.00  .00000  .00000 0   
  75 皖天门_22 1   1  2 .98000  .0000   33.500  15.7500  650.000  .00000  22.000 .98000 250.000 .000000  .00000  .00000 0   
  76 皖团洲_12 1   1  2 .98000  .0000   31.720  14.9100  648.800  .00000  22.000 .98000 315.000 50.0000  .00000  .00000 0   
  77 皖团洲_22 1   1  2 .98000  .0000   30.080  14.1400  656.300  .00000  22.000 .98000 315.000 50.0000  .00000  .00000 0   
  78 皖铜陵_32 1   1  2 .98000  .0000   15.570  7.31900  249.900  .00000  20.000 .98000 160.000 20.0000  .00000  .00000 0   
  79 皖铜陵_42 1   1  2 .98000  .0000   19.400  9.11600  249.900  .00000  20.000 .98000 160.000 20.0000  .00000  .00000 0   
  80 皖铜陵_52 1   1  2 .98000  .0000   48.620  22.8500  1003.00  .00000  27.000 .98000 500.000 -200.00  .00000  .00000 0   
  81 皖永丰_12 1   1  2 .98000  .0000   35.290  16.5900  609.400  .00000  20.000 .98000 300.000 50.0000  .00000  .00000 0   
  82 皖永丰_22 1   1  2 .98000  .0000   34.040  16.0000  607.000  .00000  20.000 .98000 300.000 50.0000  .00000  .00000 0   
  83 皖陈村_31 1   1  2 .98000  .0000   2.6350  1.23800  52.6900  .00000  10.500 .98000 25.0000 .000000  .00000  .00000 0   
  84 皖陈村_11 1   1  2 .98000  .0000   2.4010  1.12800  48.0100  .00000  15.700 .98000 25.0000 .000000  .00000  .00000 0   
  85 皖九华_12 1   1  2 .98000  .0000   17.860  8.39400  319.600  .00000  20.000 .98000 160.000 20.0000  .00000  .00000 0   
  86 皖九华_22 1   1  2 .98000  .0000   17.660  8.30100  309.500  .00000  20.000 .98000 150.000 20.0000  .00000  .00000 0   
  87 皖五里Ⅰ 1   1  0 1.0000  .0000   61.500  2.41200  .000000  .00000  230.00 1.0000 .000000 .000000  .00000  .00000 0   
  88 皖五里Ⅱ 1   1  0 1.0000  .0000   85.620  6.09500  .000000  .00000  230.00 1.0000 .000000 .000000  .00000  .00000 0   
  89 皖显通Ⅱ 1   1  0 1.0000  .0000   99.190  10.5050  .000000  .00000  230.00 1.0000 .000000 .000000  .00000  .00000 0   
  90 皖显通Ⅰ 1   1  0 1.0000  .0000   71.380  9.04000  .000000  .00000  230.00 1.0000 .000000 .000000  .00000  .00000 0   
  91 皖杨柳Ⅰ 1   1  0 1.0000  .0000   66.310  2.61200  .000000  .00000  230.00 1.0000 .000000 .000000  .00000  .00000 0   
  92 皖杨柳Ⅱ 1   1  0 1.0000  .0000   73.940  1.07150  .000000  .00000  230.00 1.0000 .000000 .000000  .00000  .00000 0   
  93 皖纵楼Ⅰ 1   1  0 1.0000  .0000   61.290  1.13850  .000000  .00000  230.00 1.0000 .000000 .000000  .00000  .00000 0   
  94 皖纵楼Ⅱ 1   1  0 1.0000  .0000   64.910  6.33000  .000000  .00000  230.00 1.0000 .000000 .000000  .00000  .00000 0   
  95 皖南坪Ⅱ 1   1  0 1.0000  .0000   67.780  11.8900  .000000  .00000  230.00 1.0000 .000000 .000000  .00000  .00000 0   
  96 皖南坪Ⅰ 1   1  0 1.0000  .0000   90.420  10.7850  .000000  .00000  230.00 1.0000 .000000 .000000  .00000  .00000 0   
  97 皖虹乡Ⅱ 1   1  0 1.0000  .0000   85.820  9.75000  .000000  .00000  230.00 1.0000 .000000 .000000  .00000  .00000 0   
  98 皖桃沟_22 1   1  0 1.0000  .0000   11.000  -9.5000  .000000  .00000  230.00 1.0000 .000000 .000000  .00000  .00000 0   
  99 皖双庆Ⅰ 1   1  0 1.0000  .0000   128.60  15.9650  .000000  .00000  230.00 1.0000 .000000 .000000  .00000  .00000 0   
 100 皖马井Ⅱ 1   1  0 1.0000  .0000   109.90  11.8400  .000000  .00000  230.00 1.0000 .000000 .000000  .00000  .00000 0   
 101 皖马井Ⅰ 1   1  0 1.0000  .0000   65.670  3.79750  .000000  .00000  230.00 1.0000 .000000 .000000  .00000  .00000 0   
 102 皖沱河Ⅱ 1   1  0 1.0000  .0000   61.000  4.50000  .000000  .00000  230.00 1.0000 .000000 .000000  .00000  .00000 0   
 103 皖沱河Ⅰ 1   1  0 1.0000  .0000   29.000  2.00000  .000000  .00000  230.00 1.0000 .000000 .000000  .00000  .00000 0   
 104 皖刘尧Ⅱ 1   1  0 1.0000  .0000   34.700  5.42500  .000000  .00000  230.00 1.0000 .000000 .000000  .00000  .00000 0   
 105 皖刘尧Ⅰ 1   1  0 1.0000  .0000   61.220  3.28200  .000000  .00000  230.00 1.0000 .000000 .000000  .00000  .00000 0   
 106 皖姬村Ⅰ 1   1  0 1.0000  .0000   75.720  8.05000  .000000  .00000  230.00 1.0000 .000000 .000000  .00000  .00000 0   
 107 皖姬村Ⅱ 1   1  0 1.0000  .0000   59.190  2.71900  .000000  .00000  230.00 1.0000 .000000 .000000  .00000  .00000 0   
 108 皖陇海Ⅱ 1   1  0 1.0000  .0000   115.00  9.15500  .000000  .00000  230.00 1.0000 .000000 .000000  .00000  .00000 0   
 109 皖薛桥Ⅱ 1   1  0 1.0000  .0000   7.5930  .000000  .000000  .00000  230.00 1.0000 .000000 .000000  .00000  .00000 0   
 110 皖东庄Ⅱ 1   1  0 1.0000  .0000   29.000  4.15000  .000000  .00000  230.00 1.0000 .000000 .000000  .00000  .00000 0   
 111 皖东庄Ⅰ 1   1  0 1.0000  .0000   65.400  3.20000  .000000  .00000  230.00 1.0000 .000000 .000000  .00000  .00000 0   
 112 皖阜阳Ⅰ 1   1  0 1.0000  .0000   110.80  21.7700  .000000  .00000  230.00 1.0000 .000000 .000000  .00000  .00000 0   
 113 皖阜阳Ⅱ 1   1  0 1.0000  .0000   127.70  19.4250  .000000  .00000  230.00 1.0000 .000000 .000000  .00000  .00000 0   
 114 皖程集Ⅰ 1   1  0 1.0000  .0000   86.630  9.26500  .000000  .00000  230.00 1.0000 .000000 .000000  .00000  .00000 0   
 115 皖牛庄Ⅱ 1   1  0 1.0000  .0000   115.70  11.5650  .000000  .00000  230.00 1.0000 .000000 .000000  .00000  .00000 0   
 116 皖牛庄Ⅰ 1   1  0 1.0000  .0000   111.50  9.11000  .000000  .00000  230.00 1.0000 .000000 .000000  .00000  .00000 0   
 117 皖邢集Ⅱ 1   1  0 1.0000  .0000   80.490  10.7800  .000000  .00000  230.00 1.0000 .000000 .000000  .00000  .00000 0   
 118 皖邢集Ⅰ 1   1  0 1.0000  .0000   99.440  11.0500  .000000  .00000  230.00 1.0000 .000000 .000000  .00000  .00000 0   
 119 皖花园Ⅱ 1   1  0 1.0000  .0000   71.020  13.1300  .000000  .00000  230.00 1.0000 .000000 .000000  .00000  .00000 0   
 120 皖花园Ⅰ 1   1  0 1.0000  .0000   76.110  8.71000  .000000  .00000  230.00 1.0000 .000000 .000000  .00000  .00000 0   
 121 皖白果Ⅱ 1   1  0 1.0000  .0000   142.00  13.2600  .000000  .00000  230.00 1.0000 .000000 .000000  .00000  .00000 0   
 122 皖徐寨Ⅱ 1   1  0 1.0000  .0000   139.80  22.3250  .000000  .00000  230.00 1.0000 .000000 .000000  .00000  .00000 0   
 123 皖太和Ⅰ 1   1  0 1.0000  .0000   85.470  3.13200  .000000  .00000  230.00 1.0000 .000000 .000000  .00000  .00000 0   
 124 皖太和Ⅱ 1   1  0 1.0000  .0000   84.630  13.9200  .000000  .00000  230.00 1.0000 .000000 .000000  .00000  .00000 0   
 125 皖涡阳Ⅰ 1   1  0 1.0000  .0000   54.790  4.85600  .000000  .00000  230.00 1.0000 .000000 .000000  .00000  .00000 0   
 126 皖涡阳Ⅱ 1   1  0 1.0000  .0000   76.760  9.78000  .000000  .00000  230.00 1.0000 .000000 .000000  .00000  .00000 0   
 127 皖蒙城Ⅱ 1   1  0 1.0000  .0000   62.040  1.74200  .000000  .00000  230.00 1.0000 .000000 .000000  .00000  .00000 0   
 128 皖蒙城Ⅰ 1   1  0 1.0000  .0000   78.520  7.63500  .000000  .00000  230.00 1.0000 .000000 .000000  .00000  .00000 0   
 129 皖谯城Ⅱ 1   1  0 1.0000  .0000   75.370  3.98650  .000000  .00000  230.00 1.0000 .000000 .000000  .00000  .00000 0   
 130 皖谯城Ⅰ 1   1  0 1.0000  .0000   91.380  .067000  .000000  .00000  230.00 1.0000 .000000 .000000  .00000  .00000 0   
 131 皖焦楼Ⅱ 1   1  0 1.0000  .0000   45.010  1.00450  .000000  .00000  230.00 1.0000 .000000 .000000  .00000  .00000 0   
 132 皖焦楼Ⅰ 1   1  0 1.0000  .0000   50.100  1.47350  .000000  .00000  230.00 1.0000 .000000 .000000  .00000  .00000 0   
 133 皖茨淮Ⅱ 1   1  0 1.0000  .0000   63.800  3.21650  .000000  .00000  230.00 1.0000 .000000 .000000  .00000  .00000 0   
 134 皖茨淮Ⅰ 1   1  0 1.0000  .0000   80.410  -1.6100  .000000  .00000  230.00 1.0000 .000000 .000000  .00000  .00000 0   
 135 皖魏武Ⅱ 1   1  0 1.0000  .0000   131.60  9.59000  .000000  .00000  230.00 1.0000 .000000 .000000  .00000  .00000 0   
 136 皖蚌东Ⅱ 1   1  0 1.0000  .0000   43.860  1.51850  .000000  .00000  230.00 1.0000 .000000 .000000  .00000  .00000 0   
 137 皖蚌东Ⅰ 1   1  0 1.0000  .0000   77.580  10.8550  .000000  .00000  230.00 1.0000 .000000 .000000  .00000  .00000 0   
 138 皖高湖Ⅰ 1   1  0 1.0000  .0000   69.700  6.23500  .000000  .00000  230.00 1.0000 .000000 .000000  .00000  .00000 0   
 139 皖高湖Ⅱ 1   1  0 1.0000  .0000   49.330  .000000  .000000  .00000  230.00 1.0000 .000000 .000000  .00000  .00000 0   
 140 皖秦集Ⅱ 1   1  0 1.0000  .0000   57.000  2.34450  .000000  .00000  230.00 1.0000 .000000 .000000  .00000  .00000 0   
 141 皖秦集Ⅰ 1   1  0 1.0000  .0000   74.350  2.00950  .000000  .00000  230.00 1.0000 .000000 .000000  .00000  .00000 0   
 142 皖凤阳Ⅰ 1   1  0 1.0000  .0000   71.810  11.2850  .000000  .00000  230.00 1.0000 .000000 .000000  .00000  .00000 0   
 143 皖凤阳Ⅱ 1   1  0 1.0000  .0000   84.260  16.1450  .000000  .00000  230.00 1.0000 .000000 .000000  .00000  .00000 0   
 144 皖燕山Ⅱ 1   1  0 1.0000  .0000   71.880  4.82750  .000000  .00000  230.00 1.0000 .000000 .000000  .00000  .00000 0   
 145 皖燕山Ⅰ 1   1  0 1.0000  .0000   43.010  6.16500  .000000  .00000  230.00 1.0000 .000000 .000000  .00000  .00000 0   
 146 皖涂山Ⅱ 1   1  0 1.0000  .0000   73.660  1.60850  .000000  .00000  230.00 1.0000 .000000 .000000  .00000  .00000 0   
 147 皖钟阳Ⅰ 1   1  0 1.0000  .0000   98.450  10.1750  .000000  .00000  230.00 1.0000 .000000 .000000  .00000  .00000 0   
 148 皖蒋南Ⅰ 1   1  0 1.0000  .0000   39.650  3.32750  .000000  .00000  230.00 1.0000 .000000 .000000  .00000  .00000 0   
 149 皖固镇Ⅱ 1   1  0 1.0000  .0000   20.900  -3.4400  .000000  .00000  230.00 1.0000 .000000 .000000  .00000  .00000 0   
 150 皖李楼Ⅱ 1   1  0 1.0000  .0000   21.500  .000000  .000000  .00000  230.00 1.0000 .000000 .000000  .00000  .00000 0   
 151 皖官塘Ⅰ 1   1  0 1.0000  .0000   91.430  7.61000  .000000  .00000  230.00 1.0000 .000000 .000000  .00000  .00000 0   
 152 皖陈桥Ⅰ 1   1  0 1.0000  .0000   42.420  5.16500  .000000  .00000  230.00 1.0000 .000000 .000000  .00000  .00000 0   
 153 皖天长Ⅱ 1   1  0 1.0000  .0000   84.690  3.44500  .000000  .00000  230.00 1.0000 .000000 .000000  .00000  .00000 0   
 154 皖天长Ⅰ 1   1  0 1.0000  .0000   16.790  1.67250  .000000  .00000  230.00 1.0000 .000000 .000000  .00000  .00000 0   
 155 皖滁县Ⅱ 1   1  0 1.0000  .0000   73.410  2.88000  .000000  .00000  230.00 1.0000 .000000 .000000  .00000  .00000 0   
 156 皖滁县Ⅰ 1   1  0 1.0000  .0000   60.550  4.75550  .000000  .00000  230.00 1.0000 .000000 .000000  .00000  .00000 0   
 157 皖定远Ⅱ 1   1  0 1.0000  .0000   77.490  4.35450  .000000  .00000  230.00 1.0000 .000000 .000000  .00000  .00000 0   
 158 皖定远Ⅰ 1   1  0 1.0000  .0000   40.870  .871000  .000000  .00000  230.00 1.0000 .000000 .000000  .00000  .00000 0   
 159 皖建阳Ⅰ 1   1  0 1.0000  .0000   78.630  4.55450  .000000  .00000  230.00 1.0000 .000000 .000000  .00000  .00000 0   
 160 皖建阳Ⅱ 1   1  0 1.0000  .0000   45.680  -.67000  .000000  .00000  230.00 1.0000 .000000 .000000  .00000  .00000 0   
 161 皖黄栗Ⅰ 1   1  0 1.0000  .0000   77.880  7.22000  .000000  .00000  230.00 1.0000 .000000 .000000  .00000  .00000 0   
 162 皖华兴Ⅱ 1   1  0 1.0000  .0000   6.6250  .000000  .000000  .00000  230.00 1.0000 .000000 .000000  .00000  .00000 0   
 163 皖宝桥Ⅰ 1   1  0 1.0000  .0000   54.520  5.62500  .000000  .00000  230.00 1.0000 .000000 .000000  .00000  .00000 0   
 164 皖宝桥Ⅱ 1   1  0 1.0000  .0000   78.590  -2.5900  .000000  .00000  230.00 1.0000 .000000 .000000  .00000  .00000 0   
 165 皖千秋Ⅱ 1   1  0 1.0000  .0000   71.910  .000000  .000000  .00000  230.00 1.0000 .000000 .000000  .00000  .00000 0   
 166 皖千秋Ⅰ 1   1  0 1.0000  .0000   48.110  .000000  .000000  .00000  230.00 1.0000 .000000 .000000  .00000  .00000 0   
 167 皖桑涧012 1   1  0 1.0000  .0000   23.540  .000000  .000000  .00000  230.00 1.0000 .000000 .000000  .00000  .00000 0   
 168 皖深秀Ⅰ 1   1  0 1.0000  .0000   51.440  1.33950  .000000  .00000  230.00 1.0000 .000000 .000000  .00000  .00000 0   
 169 皖嘉山Ⅱ 1   1  0 1.0000  .0000   54.400  5.26000  .000000  .00000  230.00 1.0000 .000000 .000000  .00000  .00000 0   
 170 皖嘉山Ⅰ 1   1  0 1.0000  .0000   23.180  -.36850  .000000  .00000  230.00 1.0000 .000000 .000000  .00000  .00000 0   
 171 皖西山Ⅰ 1   1  0 1.0000  .0000   51.000  7.30500  .000000  .00000  230.00 1.0000 .000000 .000000  .00000  .00000 0   
 172 皖西山Ⅱ 1   1  0 1.0000  .0000   64.800  5.12500  .000000  .00000  230.00 1.0000 .000000 .000000  .00000  .00000 0   
 173 皖八公Ⅱ 1   1  0 1.0000  .0000   58.060  8.04000  .000000  .00000  230.00 1.0000 .000000 .000000  .00000  .00000 0   
 174 皖八公Ⅰ 1   1  0 1.0000  .0000   17.550  2.07700  .000000  .00000  230.00 1.0000 .000000 .000000  .00000  .00000 0   
 175 皖金家Ⅱ 1   1  0 1.0000  .0000   57.680  -.10050  .000000  .00000  230.00 1.0000 .000000 .000000  .00000  .00000 0   
 176 皖金家Ⅰ 1   1  0 1.0000  .0000   70.880  7.07000  .000000  .00000  230.00 1.0000 .000000 .000000  .00000  .00000 0   
 177 皖芦集Ⅱ 1   1  0 1.0000  .0000   28.070  4.28800  .000000  .00000  230.00 1.0000 .000000 .000000  .00000  .00000 0   
 178 皖芦集Ⅰ 1   1  0 1.0000  .0000   23.250  .000000  .000000  .00000  230.00 1.0000 .000000 .000000  .00000  .00000 0   
 179 皖洛变Ⅰ 1   1  0 1.0000  .0000   77.180  12.1600  .000000  .00000  230.00 1.0000 .000000 .000000  .00000  .00000 0   
 180 皖洛变Ⅱ 1   1  0 1.0000  .0000   34.030  3.85250  .000000  .00000  230.00 1.0000 .000000 .000000  .00000  .00000 0   
 181 皖张集Ⅱ 1   1  0 1.0000  .0000   53.270  8.44000  .000000  .00000  230.00 1.0000 .000000 .000000  .00000  .00000 0   
 182 皖张集Ⅰ 1   1  0 1.0000  .0000   90.850  13.8000  .000000  .00000  230.00 1.0000 .000000 .000000  .00000  .00000 0   
 183 皖丁集Ⅰ 1   1  0 1.0000  .0000   66.040  7.30000  .000000  .00000  230.00 1.0000 .000000 .000000  .00000  .00000 0   
 184 皖丁集Ⅱ 1   1  0 1.0000  .0000   56.260  6.52000  .000000  .00000  230.00 1.0000 .000000 .000000  .00000  .00000 0   
 185 皖古沟Ⅱ 1   1  0 1.0000  .0000   34.000  1.50000  .000000  .00000  230.00 1.0000 .000000 .000000  .00000  .00000 0   
 186 皖古沟Ⅰ 1   1  0 1.0000  .0000   47.000  5.50000  .000000  .00000  230.00 1.0000 .000000 .000000  .00000  .00000 0   
 187 皖辛东Ⅱ 1   1  0 1.0000  .0000   61.990  7.41500  .000000  .00000  230.00 1.0000 .000000 .000000  .00000  .00000 0   
 188 皖辛东Ⅰ 1   1  0 1.0000  .0000   42.600  1.33950  .000000  .00000  230.00 1.0000 .000000 .000000  .00000  .00000 0   
 189 皖炉桥Ⅱ 1   1  0 1.0000  .0000   74.670  19.3300  .000000  .00000  230.00 1.0000 .000000 .000000  .00000  .00000 0   
 190 皖炉桥Ⅰ 1   1  0 1.0000  .0000   87.380  38.5950  .000000  .00000  230.00 1.0000 .000000 .000000  .00000  .00000 0   
 191 皖莲花Ⅰ 1   1  0 1.0000  .0000   82.250  15.0050  .000000  .00000  230.00 1.0000 .000000 .000000  .00000  .00000 0   
 192 皖莲花Ⅱ 1   1  0 1.0000  .0000   73.810  10.4150  .000000  .00000  230.00 1.0000 .000000 .000000  .00000  .00000 0   
 193 皖螺丝Ⅱ 1   1  0 1.0000  .0000   190.50  11.5900  .000000  .00000  230.00 1.0000 .000000 .000000  .00000  .00000 0   
 194 皖永青Ⅰ 1   1  0 1.0000  .0000   96.150  5.01000  .000000  .00000  230.00 1.0000 .000000 .000000  .00000  .00000 0   
 195 皖永青Ⅱ 1   1  0 1.0000  .0000   77.710  2.14400  .000000  .00000  230.00 1.0000 .000000 .000000  .00000  .00000 0   
 196 皖东郊Ⅱ 1   1  0 1.0000  .0000   37.360  6.83000  .000000  .00000  230.00 1.0000 .000000 .000000  .00000  .00000 0   
 197 皖东郊Ⅰ 1   1  0 1.0000  .0000   63.060  6.33000  .000000  .00000  230.00 1.0000 .000000 .000000  .00000  .00000 0   
 198 皖桥头Ⅰ 1   1  0 1.0000  .0000   4.4400  2.14350  .000000  .00000  230.00 1.0000 .000000 .000000  .00000  .00000 0   
 199 皖桥头Ⅱ 1   1  0 1.0000  .0000   21.170  3.55000  .000000  .00000  230.00 1.0000 .000000 .000000  .00000  .00000 0   
 200 皖振宁Ⅰ 1   1  0 1.0000  .0000   76.820  4.35600  .000000  .00000  230.00 1.0000 .000000 .000000  .00000  .00000 0   
 201 皖振宁Ⅱ 1   1  0 1.0000  .0000   60.720  3.43200  .000000  .00000  230.00 1.0000 .000000 .000000  .00000  .00000 0   
 202 皖贾郢Ⅱ 1   1  0 1.0000  .0000   77.990  8.08500  .000000  .00000  230.00 1.0000 .000000 .000000  .00000  .00000 0   
 203 皖贾郢Ⅰ 1   1  0 1.0000  .0000   61.620  2.88000  .000000  .00000  230.00 1.0000 .000000 .000000  .00000  .00000 0   
 204 皖竹溪Ⅱ 1   1  0 1.0000  .0000   98.890  2.14400  .000000  .00000  230.00 1.0000 .000000 .000000  .00000  .00000 0   
 205 皖竹溪Ⅰ 1   1  0 1.0000  .0000   60.300  4.62300  .000000  .00000  230.00 1.0000 .000000 .000000  .00000  .00000 0   
 206 皖秋蒲Ⅱ 1   1  0 1.0000  .0000   84.800  2.67900  .000000  .00000  230.00 1.0000 .000000 .000000  .00000  .00000 0   
 207 皖秋蒲Ⅰ 1   1  0 1.0000  .0000   50.500  3.01400  .000000  .00000  230.00 1.0000 .000000 .000000  .00000  .00000 0   
 208 皖紫云Ⅰ 1   1  0 1.0000  .0000   252.40  27.6850  .000000  .00000  230.00 1.0000 .000000 .000000  .00000  .00000 0   
 209 皖龙城Ⅰ 1   1  0 1.0000  .0000   5.8940  .000000  .000000  .00000  230.00 1.0000 .000000 .000000  .00000  .00000 0   
 210 皖游乐Ⅰ 1   1  0 1.0000  .0000   92.170  13.1450  .000000  .00000  230.00 1.0000 .000000 .000000  .00000  .00000 0   
 211 皖游乐Ⅱ 1   1  0 1.0000  .0000   73.440  2.72000  .000000  .00000  230.00 1.0000 .000000 .000000  .00000  .00000 0   
 212 皖陶楼Ⅰ 1   1  0 1.0000  .0000   79.830  4.72550  .000000  .00000  230.00 1.0000 .000000 .000000  .00000  .00000 0   
 213 皖陶楼Ⅱ 1   1  0 1.0000  .0000   93.090  11.0600  .000000  .00000  230.00 1.0000 .000000 .000000  .00000  .00000 0   
 214 皖植物Ⅰ 1   1  0 1.0000  .0000   61.540  3.59700  .000000  .00000  230.00 1.0000 .000000 .000000  .00000  .00000 0   
 215 皖植物Ⅱ 1   1  0 1.0000  .0000   67.720  8.53000  .000000  .00000  230.00 1.0000 .000000 .000000  .00000  .00000 0   
 216 皖富邦Ⅱ 1   1  0 1.0000  .0000   65.770  2.46650  .000000  .00000  230.00 1.0000 .000000 .000000  .00000  .00000 0   
 217 皖富邦Ⅰ 1   1  0 1.0000  .0000   103.50  3.95600  .000000  .00000  230.00 1.0000 .000000 .000000  .00000  .00000 0   
 218 皖滨湖Ⅰ 1   1  0 1.0000  .0000   76.360  1.90750  .000000  .00000  230.00 1.0000 .000000 .000000  .00000  .00000 0   
 219 皖滨湖Ⅱ 1   1  0 1.0000  .0000   52.950  .907000  .000000  .00000  230.00 1.0000 .000000 .000000  .00000  .00000 0   
 220 皖常青Ⅱ 1   1  0 1.0000  .0000   85.240  .000000  .000000  .00000  230.00 1.0000 .000000 .000000  .00000  .00000 0   
 221 皖常青Ⅰ 1   1  0 1.0000  .0000   109.90  5.09500  .000000  .00000  230.00 1.0000 .000000 .000000  .00000  .00000 0   
 222 皖板桥Ⅱ 1   1  0 1.0000  .0000   53.040  5.19500  .000000  .00000  230.00 1.0000 .000000 .000000  .00000  .00000 0   
 223 皖板桥Ⅰ 1   1  0 1.0000  .0000   47.870  3.58750  .000000  .00000  230.00 1.0000 .000000 .000000  .00000  .00000 0   
 224 皖邵岗012 1   1  0 1.0000  .0000   15.770  -1.8300  .000000  .00000  230.00 1.0000 .000000 .000000  .00000  .00000 0   
 225 皖杜岗Ⅱ 1   1  0 1.0000  .0000   9.9850  1.03850  .000000  .00000  230.00 1.0000 .000000 .000000  .00000  .00000 0   
 226 皖彭郢Ⅰ 1   1  0 1.0000  .0000   14.960  .000000  .000000  .00000  230.00 1.0000 .000000 .000000  .00000  .00000 0   
 227 皖彭郢Ⅱ 1   1  0 1.0000  .0000   22.330  3.79650  .000000  .00000  230.00 1.0000 .000000 .000000  .00000  .00000 0   
 228 皖撮镇Ⅰ 1   1  0 1.0000  .0000   37.580  .528000  .000000  .00000  230.00 1.0000 .000000 .000000  .00000  .00000 0   
 229 皖撮镇Ⅱ 1   1  0 1.0000  .0000   47.700  8.58000  .000000  .00000  230.00 1.0000 .000000 .000000  .00000  .00000 0   
 230 皖云谷Ⅰ 1   1  0 1.0000  .0000   61.730  1.30600  .000000  .00000  230.00 1.0000 .000000 .000000  .00000  .00000 0   
 231 皖云谷Ⅱ 1   1  0 1.0000  .0000   29.740  2.56850  .000000  .00000  230.00 1.0000 .000000 .000000  .00000  .00000 0   
 232 皖庐江Ⅱ 1   1  0 1.0000  .0000   64.000  5.50000  .000000  .00000  230.00 1.0000 .000000 .000000  .00000  .00000 0   
 233 皖庐江Ⅰ 1   1  0 1.0000  .0000   67.000  6.00000  .000000  .00000  230.00 1.0000 .000000 .000000  .00000  .00000 0   
 234 皖巢湖Ⅱ 1   1  0 1.0000  .0000   51.180  6.30000  .000000  .00000  230.00 1.0000 .000000 .000000  .00000  .00000 0   
 235 皖巢湖Ⅰ 1   1  0 1.0000  .0000   29.880  4.82350  .000000  .00000  230.00 1.0000 .000000 .000000  .00000  .00000 0   
 236 皖旗山Ⅱ 1   1  0 1.0000  .0000   61.400  6.82000  .000000  .00000  230.00 1.0000 .000000 .000000  .00000  .00000 0   
 237 皖旗山Ⅰ 1   1  0 1.0000  .0000   48.970  7.41000  .000000  .00000  230.00 1.0000 .000000 .000000  .00000  .00000 0   
 238 皖庙集Ⅱ 1   1  0 1.0000  .0000   34.220  .965000  .000000  .00000  230.00 1.0000 .000000 .000000  .00000  .00000 0   
 239 皖绣溪Ⅱ 1   1  0 1.0000  .0000   36.760  3.96450  .000000  .00000  230.00 1.0000 .000000 .000000  .00000  .00000 0   
 240 皖鑫晟Ⅰ 1   1  0 1.0000  .0000   6.8340  .000000  .000000  .00000  230.00 1.0000 .000000 .000000  .00000  .00000 0   
 241 皖鑫晟Ⅱ 1   1  0 1.0000  .0000   11.260  1.27300  .000000  .00000  230.00 1.0000 .000000 .000000  .00000  .00000 0   
 242 皖蓼城Ⅰ 1   1  0 1.0000  .0000   68.000  12.5000  .000000  .00000  230.00 1.0000 .000000 .000000  .00000  .00000 0   
 243 皖蓼城Ⅱ 1   1  0 1.0000  .0000   43.000  -4.0000  .000000  .00000  230.00 1.0000 .000000 .000000  .00000  .00000 0   
 244 皖寿州Ⅱ 1   1  0 1.0000  .0000   61.190  5.69500  .000000  .00000  230.00 1.0000 .000000 .000000  .00000  .00000 0   
 245 皖寿州Ⅰ 1   1  0 1.0000  .0000   42.990  4.91300  .000000  .00000  230.00 1.0000 .000000 .000000  .00000  .00000 0   
 246 皖红石Ⅰ 1   1  0 1.0000  .0000   -42.40  8.04500  .000000  .00000  230.00 1.0000 .000000 .000000  .00000  .00000 0   
 247 皖墩义002 1   1  0 1.0000  .0000   5.8980  .000000  .000000  .00000  230.00 1.0000 .000000 .000000  .00000  .00000 0   