 15/11/06                      100.0  2006 8              1163558078197_1
BUS DATA FOLLOWS                    598 ITEMS
   1 观澜站       1 1   0  1.00020.     0.       0.        0.      0.       115.0   0.    0.      0.      0.      0.        0   
   2 安良站       1 1   0  .983280.     0.       0.        0.      0.       115.0   0.    0.      0.      0.      0.        0   
   3 Bus_3        1 1   0  1.0   0.     0.       0.        0.      0.       0.      0.    0.      0.      0.      0.        0   
   4 李朗站       1 1   0  1.0   0.     0.       0.        0.      0.       115.0   0.    0.      0.      0.      0.        0   
   5 东湖站       1 1   0  1.01350.     0.       0.        0.      0.       230.0   0.    0.      0.      0.      0.        0   
   6 潭头站       1 1   0  1.0   0.     0.       0.        0.      0.       115.0   0.    0.      0.      0.      0.        0   
   7 高新站       1 1   0  .972320.     0.       0.        0.      0.       115.0   0.    0.      0.      0.      0.        0   
   8 李朗站       1 1   0  .993610.     0.       0.        0.      0.       230.0   0.    0.      0.      0.      0.        0   
   9 ST_深圳地区_ 1 1   2  1.0   0.     0.       0.        0.      12.6837  230.0   0.    99900.0 -99900.00.      0.        0   
  10 平安站       1 1   0  .994590.     0.       0.        0.      0.       230.0   0.    0.      0.      0.      0.        0   
  11 少年宫站     1 1   0  .961670.     0.       0.        0.      0.       115.0   0.    0.      0.      0.      0.        0   
  12 福田厂       1 1   2  1.0   0.     0.       0.        -0.021  1.5186   115.0   0.    99900.0 -99900.00.      0.        0   
  13 岗厦站       1 1   0  .99   0.     0.       0.        0.      0.       115.0   0.    0.      0.      0.      0.        0   
  14 沙头角站     1 1   0  .963020.     0.       0.        0.      0.       115.0   0.    0.      0.      0.      0.        0   
  15 景田站       1 1   0  1.02270.     0.       0.        0.      0.       115.0   0.    0.      0.      0.      0.        0   
  16 南山厂       1 1   2  1.0   0.     0.       0.        618.0186147.5423 115.0   0.    99900.0 -99900.00.      0.        0   
  17 安良站       1 1   0  .980110.     67.74029922.0999   0.      0.       10.5    0.    0.      0.      0.      .2        0   
  18 农科站       1 1   0  .982130.     0.       0.        0.      0.       115.0   0.    0.      0.      0.      0.        0   
  19 香港站       1 1   0  1.0   0.     0.       0.        0.      0.       115.0   0.    0.      0.      0.      0.        0   
  20 油松站       1 1   0  .983480.     33.0046  5.6132    0.      0.       10.5    0.    0.      0.      0.      .1002000  0   
  21 大芬站       1 1   0  .990850.     30.12430011.7594   0.      0.       10.5    0.    0.      0.      0.      0.05      0   
  22 春风站       1 1   0  .963020.     0.       0.        0.      0.       115.0   0.    0.      0.      0.      0.        0   
  23 Bus_23       1 1   0  1.0   0.     0.       0.        0.      0.       0.      0.    0.      0.      0.      0.        0   
  24 ST_深圳地区_ 1 1   2  1.0   0.     0.       0.        0.      0.       230.0   0.    99900.0 -99900.00.      0.        0   
  25 ST_深圳地区_ 1 1   2  1.0   0.     0.       0.        0.      -206.439 525.0   0.    99900.0 -99900.00.      0.        0   
  26 ST_深圳地区_ 1 1   2  1.0   0.     0.       0.        0.      0.       230.0   0.    99900.0 -99900.00.      0.        0   
  27 ST_深圳地区_ 1 1   2  1.0   0.     0.       0.        0.      0.       230.0   0.    99900.0 -99900.00.      0.        0   
  28 梅林站       1 1   0  1.01100.     0.       0.        0.      0.       115.0   0.    0.      0.      0.      0.        0   
  29 Bus_29       1 1   0  1.0   0.     0.       0.        0.      0.       0.      0.    0.      0.      0.      0.        0   
  30 农科站       1 1   0  .962580.     39.8181  18.8722   0.      0.       10.5    0.    0.      0.      0.      .16       0   
  31 文化站       1 1   0  1.0   0.     -41.46349-8.22769990.      0.       38.0    0.    0.      0.      0.      0.        0   
  32 龙华站       1 1   0  .991720.     240.06359-109.473900.      0.       10.5    0.    0.      0.      0.      0.059999  0   
  33 岗头站       1 1   0  .976850.     0.       0.        0.      0.       115.0   0.    0.      0.      0.      0.        0   
  34 新桥站       1 1   0  1.0   0.     36.2643  10.9045   0.      0.       10.5    0.    0.      0.      0.      .1920000  0   
  35 ST_深圳地区_ 1 1   2  1.0   0.     0.       0.        0.      26.7938  230.0   0.    99900.0 -99900.00.      0.        0   
  36 莞城站_EQU   1 1   0  1.0   0.     -0.0072  .3055     0.      0.       34.5    0.    0.      0.      0.      0.        0   
  37 坪山站       1 1   0  1.0   0.     0.       0.        0.      0.       10.5    0.    0.      0.      0.      0.        0   
  38 岭澳核电_EQU 1 1   0  1.0   0.     21.0335  -5.5454   0.      0.       525.0   0.    0.      0.      0.      0.        0   
  39 盘古石站     1 1   0  1.0   0.     0.       0.        0.      0.       115.0   0.    0.      0.      0.      0.        0   
  40 笋岗站       1 1   0  .973740.     38.1059  10.03479990.      0.       10.5    0.    0.      0.      0.      .1        0   
  41 石厦站       1 1   0  1.0   0.     23.4827  5.8471    0.      0.       10.5    0.    0.      0.      0.      0.05      0   
  42 水贝站       1 1   0  .970850.     27.6733  .5404000000.      0.       10.5    0.    0.      0.      0.      0.        0   
  43 经贸站       1 1   0  1.0   0.     0.       0.        0.      0.       230.0   0.    0.      0.      0.      0.        0   
  44 惠州站_EQU   1 1   0  1.0   0.     -0.0887  8.4274    0.      0.       230.0   0.    0.      0.      0.      0.        0   
  45 腾飞站       1 1   0  1.0   0.     0.       0.        0.      0.       115.0   0.    0.      0.      0.      0.        0   
  46 新百站       1 1   0  .968130.     0.       0.        0.      0.       115.0   0.    0.      0.      0.      0.        0   
  47 ST_深圳地区_ 1 1   2  1.0   0.     0.       0.        0.      -19.061  230.0   0.    99900.0 -99900.00.      0.        0   
  48 新玉站       1 1   0  1.00960.     0.       0.        0.      0.       115.0   0.    0.      0.      0.      0.        0   
  49 公明站       1 1   0  .983420.     58.1415  30.4309   0.      0.       10.5    0.    0.      0.      0.      .4809599  0   
  50 Bus_50       1 1   0  1.0   0.     0.       0.        0.      0.       0.      0.    0.      0.      0.      0.        0   
  51 沙角总厂_EQU 1 1   2  1.0   0.     0.       0.        607.541170.3572  19.0    0.    99900.0 -99900.00.      0.        0   
  52 南头站       1 1   0  1.02680.     0.       0.        0.      0.       115.0   0.    0.      0.      0.      0.        0   
  53 皇岗站       1 1   0  .976570.     26.25970012.9898   0.      0.       10.5    0.    0.      0.      0.      .3206399  0   
  54 Bus_54       1 1   0  1.0   0.     0.       0.        0.      0.       0.      0.    0.      0.      0.      0.        0   
  55 坑梓站       1 1   0  .978850.     34.16309912.24570000.      0.       10.5    0.    0.      0.      0.      .1        0   
  56 观澜站       1 1   0  .985170.     37.6505  15.24900000.      0.       10.5    0.    0.      0.      0.      0.        0   
  57 科技园站     1 1   0  .986930.     0.       0.        0.      0.       115.0   0.    0.      0.      0.      0.        0   
  58 陆联站       1 1   0  .984600.     63.93870011.4225   0.      0.       10.5    0.    0.      0.      0.      0.088559  0   
  59 ST_深圳地区_ 1 1   2  1.0   0.     0.       0.        0.      45.88    525.0   0.    99900.0 -99900.00.      0.        0   
  60 水贝站       1 1   0  .980810.     0.       0.        0.      0.       115.0   0.    0.      0.      0.      0.        0   
  61 公明站       1 1   0  .988850.     0.       0.        0.      0.       230.0   0.    0.      0.      0.      0.        0   
  62 简龙站       1 1   0  1.0   0.     0.       0.        0.      0.       115.0   0.    0.      0.      0.      0.        0   
  63 六约站       1 1   0  .977370.     0.       0.        0.      0.       115.0   0.    0.      0.      0.      0.        0   
  64 龙塘站       1 1   0  1.0   0.     0.       0.        0.      0.       10.5    0.    0.      0.      0.      0.        0   
  65 燕罗站       1 1   0  .967020.     61.9391  8.5074    0.      0.       10.5    0.    0.      0.      0.      .3006000  0   
  66 Bus_66       1 1   0  1.0   0.     0.       0.        0.      0.       0.      0.    0.      0.      0.      0.        0   
  67 岗厦站       1 1   0  .972570.     44.3377  11.34189990.      0.       10.5    0.    0.      0.      0.      .2004000  0   
  68 龙梅上T接点  1 1   0  1.0   0.     0.       0.        0.      0.       115.0   0.    0.      0.      0.      0.        0   
  69 葵冲站       1 1   0  .936930.     0.       0.        0.      0.       38.0    0.    0.      0.      0.      0.        0   
  70 Bus_70       1 1   0  1.0   0.     0.       0.        0.      0.       0.      0.    0.      0.      0.      0.        0   
  71 ST_深圳地区_ 1 1   2  1.0   0.     0.       0.        0.      0.       230.0   0.    99900.0 -99900.00.      0.        0   
  72 凤凰站       1 1   0  .969050.     0.       0.        0.      0.       115.0   0.    0.      0.      0.      0.        0   
  73 新安站       1 1   0  .975260.     31.24800011.6247   0.      0.       10.5    0.    0.      0.      0.      .1        0   
  74 龙华站       1 1   0  .981810.     0.       0.        0.      0.       115.0   0.    0.      0.      0.      0.        0   
  75 中航站       1 1   0  .983680.     0.       0.        0.      0.       115.0   0.    0.      0.      0.      0.        0   
  76 东莞站_EQU   1 1   0  1.0   0.     .5243    15.1229   0.      0.       230.0   0.    0.      0.      0.      0.        0   
  77 Bus_77       1 1   0  1.0   0.     0.       0.        0.      0.       0.      0.    0.      0.      0.      0.        0   
  78 Bus_78       1 1   0  1.0   0.     0.       0.        0.      0.       0.      0.    0.      0.      0.      0.        0   
  79 Bus_79       1 1   0  1.0   0.     0.       0.        0.      0.       0.      0.    0.      0.      0.      0.        0   
  80 和平站       1 1   0  .9624 0.     39.0858  13.3629   0.      0.       10.5    0.    0.      0.      0.      0.05      0   
  81 妈湾厂_EQU   1 1   2  1.0   0.     0.       0.        285.084975.7908  22.0    0.    99900.0 -99900.00.      0.        0   
  82 南山站       1 1   0  1.00100.     0.       0.        0.      0.       115.0   0.    0.      0.      0.      0.        0   
  83 盘古石站     1 1   0  1.0   0.     0.       0.        0.      0.       230.0   0.    0.      0.      0.      0.        0   
  84 上村站       1 1   0  .983390.     0.       0.        0.      0.       115.0   0.    0.      0.      0.      0.        0   
  85 ST_深圳地区_ 1 1   2  1.0   0.     0.       0.        0.      0.       230.0   0.    99900.0 -99900.00.      0.        0   
  86 Bus_86       1 1   0  1.0   0.     0.       0.        0.      0.       0.      0.    0.      0.      0.      0.        0   
  87 陆联站       1 1   0  .973240.     30.5946996.2919    0.      0.       10.5    0.    0.      0.      0.      0.        0   
  88 沙角总厂_EQU 1 1   2  1.0   0.     0.       0.        609.17  73.2475  19.0    0.    99900.0 -99900.00.      0.        0   
  89 白田站       1 1   0  .978870.     0.       0.        0.      0.       115.0   0.    0.      0.      0.      0.        0   
  90 Bus_90       1 1   0  1.0   0.     0.       0.        0.      0.       0.      0.    0.      0.      0.      0.        0   
  91 星河站       1 1   0  .983770.     -0.219   .8411000000.      0.       10.5    0.    0.      0.      0.      .3006000  0   
  92 石厦站       1 1   0  1.0   0.     0.       0.        0.      0.       115.0   0.    0.      0.      0.      0.        0   
  93 王家站       1 1   0  .994960.     94.6734  39.6338   0.      0.       10.5    0.    0.      0.      0.      .1        0   
  94 白田站       1 1   0  .976310.     22.860999.6795000000.      0.       10.5    0.    0.      0.      0.      0.        0   
  95 祥和站       1 1   0  .972830.     0.       0.        0.      0.       115.0   0.    0.      0.      0.      0.        0   
  96 西乡站       1 1   0  1.0   0.     0.       0.        0.      0.       115.0   0.    0.      0.      0.      0.        0   
  97 沙角总厂_EQU 1 1   0  1.0   0.     0.       0.        0.      0.       525.0   0.    0.      0.      0.      0.        0   
  98 Bus_98       1 1   0  1.0   0.     0.       0.        0.      0.       0.      0.    0.      0.      0.      0.        0   
  99 坪山站       1 1   0  .993440.     8.1246   -2.1021   0.      0.       230.0   0.    0.      0.      0.      0.        0   
 100 罗湖站       1 1   0  .995420.     25.1483005.2016    0.      0.       10.5    0.    0.      0.      0.      0.096960  0   
 101 ST_深圳地区_ 1 1   2  1.0   0.     0.       0.        0.      -207.935 525.0   0.    99900.0 -99900.00.      0.        0   
 102 简龙站       1 1   0  1.0   0.     0.       0.        0.      0.       10.5    0.    0.      0.      0.      0.        0   
 103 Bus_103      1 1   0  1.0   0.     0.       0.        0.      0.       0.      0.    0.      0.      0.      0.        0   
 104 沙角总厂_EQU 1 1   0  1.0   0.     -25.3621066.7114   0.      0.       525.0   0.    0.      0.      0.      0.        0   
 105 向前站       1 1   0  .962910.     0.       0.        0.      0.       115.0   0.    0.      0.      0.      0.        0   
 106 ST_深圳地区_ 1 1   2  1.0   0.     0.       0.        0.      0.       230.0   0.    99900.0 -99900.00.      0.        0   
 107 湖洋站       1 1   0  1.00680.     0.       0.        0.      0.       115.0   0.    0.      0.      0.      0.        0   
 108 高新站       1 1   0  1.0   0.     0.       0.        0.      0.       115.0   0.    0.      0.      0.      0.        0   
 109 盘古石站     1 1   0  1.0   0.     0.       0.        0.      0.       10.5    0.    0.      0.      0.      0.        0   
 110 ST_深圳地区_ 1 1   2  1.0   0.     0.       0.        0.      0.       230.0   0.    99900.0 -99900.00.      0.        0   
 111 Bus_111      1 1   0  1.0   0.     0.       0.        0.      0.       0.      0.    0.      0.      0.      0.        0   
 112 欢乐站       1 1   0  .987370.     0.       0.        0.      0.       10.5    0.    0.      0.      0.      .2004000  0   
 113 妈湾厂_EQU   1 1   2  1.0   0.     0.       0.        287.405971.096   22.0    0.    99900.0 -99900.00.      0.        0   
 114 南澳站       1 1   0  .991930.     0.       0.        0.      0.       115.0   0.    0.      0.      0.      0.        0   
 115 福永站       1 1   0  .992570.     65.7837  33.0886   0.      0.       10.5    0.    0.      0.      0.      .1503000  0   
 116 Bus_116      1 1   0  1.0   0.     0.       0.        0.      0.       0.      0.    0.      0.      0.      0.        0   
 117 梅林站       1 1   0  1.0   0.     0.       0.        0.      0.       10.5    0.    0.      0.      0.      0.        0   
 118 钰湖厂       1 1   2  1.0   0.     0.       0.        153.084738.5185  115.0   0.    99900.0 -99900.00.      0.        0   
 119 祥和站       1 1   0  1.01150.     0.       0.        0.      0.       230.0   0.    0.      0.      0.      0.        0   
 120 惠州站_EQU   1 1   0  1.0   0.     0.       0.        0.      0.       34.5    0.    0.      0.      0.      0.        0   
 121 金岗厂       1 1   2  1.0   0.     0.       0.        .8406   -0.5232  115.0   0.    99900.0 -99900.00.      0.        0   
 122 松北站       1 1   0  .984300.     0.       0.        0.      0.       115.0   0.    0.      0.      0.      0.        0   
 123 信垅站_EQU   1 1   0  1.0   0.     265.0689019.77270000.      0.       230.0   0.    0.      0.      0.      0.        0   
 124 深圳站       1 1   0  1.00000.     0.       0.        0.      0.       34.5    0.    0.      0.      0.      -0.94999  0   
 125 莲花山站     1 1   0  .979660.     0.       0.        0.      0.       115.0   0.    0.      0.      0.      0.        0   
 126 ST_深圳地区_ 1 1   2  1.0   0.     0.       0.        0.      -41.0195 525.0   0.    99900.0 -99900.00.      0.        0   
 127 大浪站       1 1   0  .962510.     0.       0.        0.      0.       115.0   0.    0.      0.      0.      0.        0   
 128 田寮站       1 1   0  1.0   0.     39.559700-4.2195   0.      0.       10.5    0.    0.      0.      0.      .3006000  0   
 129 东湖站       1 1   0  1.0   0.     0.       0.        0.      0.       10.5    0.    0.      0.      0.      0.        0   
 130 ST_深圳地区_ 1 1   2  1.0   0.     0.       0.        0.      0.       525.0   0.    99900.0 -99900.00.      0.        0   
 131 中航站       1 1   0  1.0   0.     0.       0.        0.      0.       10.5    0.    0.      0.      0.      0.        0   
 132 坪山站       1 1   0  .972780.     0.       0.        0.      0.       115.0   0.    0.      0.      0.      0.        0   
 133 ST_深圳地区_ 1 1   2  1.0   0.     0.       0.        0.      -28.8525 230.0   0.    99900.0 -99900.00.      0.        0   
 134 岗头站       1 1   0  .992740.     44.69420014.36169990.      0.       10.5    0.    0.      0.      0.      .1002000  0   
 135 深圳站       1 1   0  .993710.     0.       0.        0.      0.       525.0   0.    0.      0.      0.      0.        0   
 136 中航站       1 1   0  1.01580.     0.       0.        0.      0.       230.0   0.    0.      0.      0.      0.        0   
 137 Bus_137      1 1   0  1.0   0.     0.       0.        0.      0.       0.      0.    0.      0.      0.      0.        0   
 138 简龙站       1 1   0  .989820.     -24.427  .4834     0.      0.       115.0   0.    0.      0.      0.      0.        0   
 139 西乡站       1 1   0  1.01120.     0.       0.        0.      0.       115.0   0.    0.      0.      0.      0.        0   
 140 Bus_140      1 1   0  1.0   0.     0.       0.        0.      0.       0.      0.    0.      0.      0.      0.        0   
 141 工业区站     1 1   0  .993840.     19.7979006.0801    0.      0.       10.5    0.    0.      0.      0.      .1500000  0   
 142 清水河站     1 1   0  .968570.     36.7664  24.89360000.      0.       10.5    0.    0.      0.      0.      .7214399  0   
 143 马坳站       1 1   0  1.0   0.     0.       0.        0.      0.       10.5    0.    0.      0.      0.      0.        0   
 144 Bus_144      1 1   0  1.0   0.     0.       0.        0.      0.       0.      0.    0.      0.      0.      0.        0   
 145 ST_深圳地区_ 1 1   2  1.0   0.     0.       0.        0.      -24.0304 230.0   0.    99900.0 -99900.00.      0.        0   
 146 海景站       1 1   0  .974340.     19.7611  4.1203    0.      0.       10.5    0.    0.      0.      0.      .1        0   
 147 ST_深圳地区_ 1 1   2  1.0   0.     0.       0.        0.      -29.3983 230.0   0.    99900.0 -99900.00.      0.        0   
 148 沙角总厂_EQU 1 1   2  1.0   0.     0.       0.        183.16  14.53270 15.75   0.    99900.0 -99900.00.      0.        0   
 149 深圳站       1 1   0  1.02860.     0.       0.        0.      0.       34.5    0.    0.      0.      0.      -0.49999  0   
 150 李朗站       1 1   0  .995480.     10.9852  7.167100000.      0.       10.5    0.    0.      0.      0.      1.202099  0   
 151 坪山站       1 1   0  .973140.     56.4575  17.90760000.      0.       10.5    0.    0.      0.      0.      0.096960  0   
 152 Bus_152      1 1   0  1.0   0.     0.       0.        0.      0.       0.      0.    0.      0.      0.      0.        0   
 153 李朗站       1 1   0  1.0   0.     0.       0.        0.      0.       10.5    0.    0.      0.      0.      0.        0   
 154 Bus_154      1 1   0  1.0   0.     0.       0.        0.      0.       0.      0.    0.      0.      0.      0.        0   
 155 Bus_155      1 1   0  1.0   0.     0.       0.        0.      0.       0.      0.    0.      0.      0.      0.        0   
 156 深圳站       1 1   0  1.0   0.     0.       0.        0.      0.       525.0   0.    0.      0.      0.      0.        0   
 157 共乐站       1 1   0  .980240.     0.       0.        0.      0.       115.0   0.    0.      0.      0.      0.        0   
 158 Bus_158      1 1   0  1.0   0.     0.       0.        0.      0.       0.      0.    0.      0.      0.      0.        0   
 159 岗厦站       1 1   0  1.0   0.     0.       0.        0.      0.       115.0   0.    0.      0.      0.      0.        0   
 160 美视B厂      1 1   2  1.0   0.     0.       0.        179.203 48.1084  115.0   0.    99900.0 -99900.00.      0.        0   
 161 老大屋站     1 1   0  .967630.     33.0371  25.4691   0.      0.       10.5    0.    0.      0.      0.      0.        0   
 162 大富站       1 1   0  .957000.     0.       0.        0.      0.       115.0   0.    0.      0.      0.      0.        0   
 163 福民站       1 1   0  .952230.     0.       0.        0.      0.       115.0   0.    0.      0.      0.      0.        0   
 164 沙角总厂_EQU 1 1   2  1.0   0.     0.       0.        181.62974.0279   15.75   0.    99900.0 -99900.00.      0.        0   
 165 公明站       1 1   0  .986550.     0.       0.        0.      0.       115.0   0.    0.      0.      0.      0.        0   
 166 沙角总厂_EQU 1 1   2  1.0   0.     0.       0.        188.289512.6309  15.75   0.    99900.0 -99900.00.      0.        0   
 167 沙角总厂_EQU 1 1   0  1.0   0.     4.9284   6.9812    0.      0.       34.5    0.    0.      0.      0.      0.        0   
 168 科技园站     1 1   0  .985800.     39.2018  12.72660000.      0.       10.5    0.    0.      0.      0.      .1        0   
 169 李朗站       1 1   0  1.0   0.     0.       0.        0.      0.       10.5    0.    0.      0.      0.      0.        0   
 170 光明站       1 1   0  .943680.     0.       0.        0.      0.       115.0   0.    0.      0.      0.      0.        0   
 171 坪山站       1 1   0  1.0   0.     0.       0.        0.      0.       10.5    0.    0.      0.      0.      0.        0   
 172 莞城站_EQU   1 1   0  1.0   0.     -26.472095.2764    0.      0.       34.5    0.    0.      0.      0.      0.        0   
 173 Bus_173      1 1   0  1.0   0.     0.       0.        0.      0.       0.      0.    0.      0.      0.      0.        0   
 174 南澳站       1 1   0  .973480.     5.7951   1.1274    0.      0.       10.5    0.    0.      0.      0.      .1        0   
 175 坪地站       1 1   0  .941110.     0.       0.        0.      0.       115.0   0.    0.      0.      0.      0.        0   
 176 东莞站_EQU   1 1   0  1.0   0.     -0.2207  1.2257    0.      0.       34.5    0.    0.      0.      0.      0.        0   
 177 春风站       1 1   0  .966280.     41.5672  11.545    0.      0.       10.5    0.    0.      0.      0.      .1920000  0   
 178 妈湾厂_EQU   1 1   2  1.0   0.     0.       0.        290.161563.1119  22.0    0.    99900.0 -99900.00.      0.        0   
 179 潭头站       1 1   0  .974570.     51.39980018.9702   0.      0.       10.5    0.    0.      0.      0.      .1002000  0   
 180 田寮站       1 1   0  .988040.     0.       0.        0.      0.       115.0   0.    0.      0.      0.      0.        0   
 181 ST_深圳地区_ 1 1   2  1.0   0.     0.       0.        0.      -19.8312 230.0   0.    99900.0 -99900.00.      0.        0   
 182 东湖站       1 1   0  .979660.     0.       0.        0.      0.       115.0   0.    0.      0.      0.      0.        0   
 183 鹏城站       1 1   0  1.01530.     0.       0.        0.      0.       34.5    0.    0.      0.      0.      2.4       0   
 184 六约站       1 1   0  .977140.     47.4106  20.3038   0.      0.       10.5    0.    0.      0.      0.      0.05      0   
 185 ST_深圳地区_ 1 1   2  1.0   0.     0.       0.        0.      -52.4385 230.0   0.    99900.0 -99900.00.      0.        0   
 186 腾飞站       1 1   0  1.0   0.     0.       0.        0.      0.       10.5    0.    0.      0.      0.      0.        0   
 187 清水河站     1 1   0  .972780.     0.       0.        0.      0.       115.0   0.    0.      0.      0.      0.        0   
 188 Bus_188      1 1   0  1.0   0.     0.       0.        0.      0.       0.      0.    0.      0.      0.      0.        0   
 189 ST_深圳地区_ 1 1   2  1.0   0.     0.       0.        0.      0.       230.0   0.    99900.0 -99900.00.      0.        0   
 190 龙塘站       1 1   0  1.0   0.     0.       0.        0.      0.       230.0   0.    0.      0.      0.      0.        0   
 191 Bus_191      1 1   0  1.0   0.     0.       0.        0.      0.       0.      0.    0.      0.      0.      0.        0   
 192 深圳站       1 1   0  1.0   0.     0.       0.        0.      0.       430.0   0.    0.      0.      0.      0.        0   
 193 罗湖站       1 1   0  1.00740.     45.053   17.92540000.      0.       10.5    0.    0.      0.      0.      0.096960  0   
 194 Bus_194      1 1   0  1.0   0.     0.       0.        0.      0.       0.      0.    0.      0.      0.      0.        0   
 195 岭澳核电_EQU 1 1   2  1.0   0.     0.       0.        971.7659101.1263 26.0    0.    99900.0 -99900.00.      0.        0   
 196 ST_深圳地区_ 1 1   2  1.0   0.     0.       0.        0.      0.       525.0   0.    99900.0 -99900.00.      0.        0   
 197 Bus_197      1 1   0  1.0   0.     0.       0.        0.      0.       0.      0.    0.      0.      0.      0.        0   
 198 红岭站       1 1   0  .971860.     0.       0.        0.      0.       115.0   0.    0.      0.      0.      0.        0   
 199 莞城站_EQU   1 1   0  1.0   0.     0.02689991.6054    0.      0.       230.0   0.    0.      0.      0.      0.        0   
 200 万安站       1 1   0  .960050.     17.3174  .9106     0.      0.       10.5    0.    0.      0.      0.      .1002000  0   
 201 石厦站       1 1   0  1.0   0.     0.       0.        0.      0.       115.0   0.    0.      0.      0.      0.        0   
 202 ST_深圳地区_ 1 1   2  1.0   0.     0.       0.        0.      0.       525.0   0.    99900.0 -99900.00.      0.        0   
 203 海天站       1 1   0  .982680.     34.5307  4.7876    0.      0.       10.5    0.    0.      0.      0.      .1500000  0   
 204 妈湾厂_EQU   1 1   0  1.0   0.     0.       0.        0.      0.       6.30000 0.    0.      0.      0.      0.        0   
 205 黄贝岭站     1 1   0  .973140.     59.14569918.345    0.      0.       10.5    0.    0.      0.      0.      .2        0   
 206 公明站       1 1   0  1.0   0.     0.       0.        0.      0.       10.5    0.    0.      0.      0.      0.        0   
 207 ST_深圳地区_ 1 1   2  1.0   0.     0.       0.        0.      -85.9056 525.0   0.    99900.0 -99900.00.      0.        0   
 208 Bus_208      1 1   0  1.0   0.     0.       0.        0.      0.       0.      0.    0.      0.      0.      0.        0   
 209 ST_深圳地区_ 1 1   2  1.0   0.     0.       0.        0.      0.       230.0   0.    99900.0 -99900.00.      0.        0   
 210 ST_深圳地区_ 1 1   2  1.0   0.     0.       0.        0.      -52.4385 230.0   0.    99900.0 -99900.00.      0.        0   
 211 平安站       1 1   0  .977140.     64.34500011.4508   0.      0.       10.5    0.    0.      0.      0.      .7214399  0   
 212 沙角总厂_EQU 1 1   2  1.0   0.     0.       0.        306.494895.209   19.0    0.    99900.0 -99900.00.      0.        0   
 213 清林站       1 1   0  .988550.     83.1797  24.1977   0.      0.       10.5    0.    0.      0.      0.      0.        0   
 214 Bus_214      1 1   0  1.0   0.     0.       0.        0.      0.       0.      0.    0.      0.      0.      0.        0   
 215 龙塘站       1 1   0  .980280.     -2.02330027.4223   0.      0.       10.5    0.    0.      0.      0.      .1603199  0   
 216 坪山站       1 1   0  .982280.     54.3258  14.27559990.      0.       10.5    0.    0.      0.      0.      .2739200  0   
 217 莲花山站     1 1   0  .971420.     51.91580029.57490000.      0.       10.5    0.    0.      0.      0.      .36       0   
 218 梅林站       1 1   0  1.0   0.     0.       0.        0.      0.       10.5    0.    0.      0.      0.      0.        0   
 219 共乐站       1 1   0  .989370.     37.1879  -5.6517   0.      0.       10.5    0.    0.      0.      0.      .3006000  0   
 220 象山站       1 1   0  1.0   0.     0.       0.        0.      0.       10.5    0.    0.      0.      0.      0.        0   
 221 ST_深圳地区_ 1 1   2  1.0   0.     0.       0.        0.      -14.5553 230.0   0.    99900.0 -99900.00.      0.        0   
 222 欢乐站       1 1   0  1.0   0.     0.       0.        0.      0.       10.5    0.    0.      0.      0.      0.        0   
 223 Bus_223      1 1   0  1.0   0.     0.       0.        0.      0.       0.      0.    0.      0.      0.      0.        0   
 224 Bus_224      1 1   0  1.0   0.     0.       0.        0.      0.       0.      0.    0.      0.      0.      0.        0   
 225 和平站       1 1   0  1.0   0.     0.       0.        0.      0.       115.0   0.    0.      0.      0.      0.        0   
 226 Bus_226      1 1   0  1.0   0.     0.       0.        0.      0.       0.      0.    0.      0.      0.      0.        0   
 227 东莞站_EQU   1 1   0  1.0   0.     -186.885 -104.5868 0.      0.       525.0   0.    0.      0.      0.      0.        0   
 228 平安站       1 1   0  1.0   0.     0.       0.        0.      0.       230.0   0.    0.      0.      0.      0.        0   
 229 深圳站       1 1   0  1.02380.     0.       0.        0.      0.       34.5    0.    0.      0.      0.      -0.89999  0   
 230 ST_深圳地区_ 1 1   2  1.0   0.     0.       0.        0.      7.86     230.0   0.    99900.0 -99900.00.      0.        0   
 231 Bus_231      1 1   0  1.0   0.     0.       0.        0.      0.       0.      0.    0.      0.      0.      0.        0   
 232 Bus_232      1 1   0  1.0   0.     0.       0.        0.      0.       0.      0.    0.      0.      0.      0.        0   
 233 美视A厂      1 1   2  1.0   0.     0.       0.        43.6331919.2471  115.0   0.    99900.0 -99900.00.      0.        0   
 234 大鹏站       1 1   0  .973250.     31.12909911.4595   0.      0.       10.5    0.    0.      0.      0.      .1500000  0   
 235 农科站       1 1   0  1.0   0.     0.       0.        0.      0.       115.0   0.    0.      0.      0.      0.        0   
 236 香港站       1 1   2  1.0   0.     0.       0.        -99.0931-14.9916 430.0   0.    99900.0 -99900.00.      0.        0   